Auto-Transcript Start Time:  23:01:22, 18 Aug 2023 中国标准时间 
Current Directory: "E:\1-python-in-daily-use"
Information: The server has started and is running.

              Welcome to ANSYS Fluent 2022 R2

              Copyright 1987-2022 ANSYS, Inc. All Rights Reserved.
              Unauthorized use, distribution or duplication is prohibited.
              This product is subject to U.S. laws governing export and re-export.
              For full Legal Notice, see documentation.

Build Time: May 27 2022 08:52:58 EDT  Build Id: 10212  
 
Connected License Server List:	1055@localhost
Host spawning Node 0 on machine "WIN-I21RD2LCQ0C" (win64).

-----------------------------------------------------------------------------------
ID    Hostname         Core   O.S.         PID    Vendor                          
-----------------------------------------------------------------------------------
n10   WIN-I21RD2LCQ0C  11/12  Windows-x64  24216  Intel(R) Core(TM) i7-8750H      
n9    WIN-I21RD2LCQ0C  10/12  Windows-x64  14280  Intel(R) Core(TM) i7-8750H      
n8    WIN-I21RD2LCQ0C  9/12   Windows-x64  24776  Intel(R) Core(TM) i7-8750H      
n7    WIN-I21RD2LCQ0C  8/12   Windows-x64  27556  Intel(R) Core(TM) i7-8750H      
n6    WIN-I21RD2LCQ0C  7/12   Windows-x64  2032   Intel(R) Core(TM) i7-8750H      
n5    WIN-I21RD2LCQ0C  6/12   Windows-x64  28276  Intel(R) Core(TM) i7-8750H      
n4    WIN-I21RD2LCQ0C  5/12   Windows-x64  26916  Intel(R) Core(TM) i7-8750H      
n3    WIN-I21RD2LCQ0C  4/12   Windows-x64  23468  Intel(R) Core(TM) i7-8750H      
n2    WIN-I21RD2LCQ0C  3/12   Windows-x64  28040  Intel(R) Core(TM) i7-8750H      
n1    WIN-I21RD2LCQ0C  2/12   Windows-x64  28940  Intel(R) Core(TM) i7-8750H      
n0*   WIN-I21RD2LCQ0C  1/12   Windows-x64  8304   Intel(R) Core(TM) i7-8750H      
host  WIN-I21RD2LCQ0C         Windows-x64  25260  Intel(R) Core(TM) i7-8750H      

MPI Option Selected: intel
Selected system interconnect: default
-----------------------------------------------------------------------------------

Cleanup script file is E:\\1-python-in-daily-use\\cleanup-fluent-WIN-I21RD2LCQ0C-25260.bat

> Fast-loading "C:\PROGRA~1\ANSYS Inc\v222\fluent\fluent22.2.0\\addons\afd\lib\hdfio.bin"
Done.

WIN-I21RD2LCQ0C is already loaded (23.4604).                       Process affinity not being set.

Reading from WIN-I21RD2LCQ0C:"F:\calculations\5nozzle-DLN2.6SIZE-NEW\1nozzle\48\48-1\48-1.cas.h5" in NODE0 mode ...
  Reading mesh ...
Warning: reading 79 partition grid onto 11 compute node machine.
         will auto partition.
     8736228 cells,     1 cell zone  ...
        8736228 mixed cells,  zone id: 7368
    31516610 faces,     8 face zones ...
         380908 polygonal wall faces,  zone id: 7376
          41176 polygonal pressure-outlet faces,  zone id: 7
            665 polygonal mass-flow-inlet faces,  zone id: 6
            670 polygonal mass-flow-inlet faces,  zone id: 5
            679 polygonal mass-flow-inlet faces,  zone id: 4
            674 polygonal mass-flow-inlet faces,  zone id: 3
            673 polygonal mass-flow-inlet faces,  zone id: 227
       31091165 mixed interior faces,  zone id: 7369
    15185679 nodes,     1 node zone  ...
  Done.


Building...
     mesh
	auto partitioning mesh by Metis (fast),
	distributing mesh
		parts...........,
		faces...........,
		nodes...........,
		cells...........,
        bandwidth reduction using Reverse Cuthill-McKee: 805737/9530 = 84.5474
     materials,
     interface,
     domains,
	mixture
     zones,
	zone48-0.25:48-0.25---1
	outlet
	interior-62
	inlet-middle
	inlet-1
	inlet-2
	inlet-3
	inlet-4
	zone48-0.25:48-0.25---1:60
     parallel,
Reading "F:\calculations\5nozzle-DLN2.6SIZE-NEW\1nozzle\48\48-1\0.5.pdf"...
	Version of the file: "fluent18.0" 
  Read PDF case variables
	Type of the PDF Table: Nonadiabatic Table with FGM Model (Two Streams) 
  Read species data
  Read stream inlets
  Read PDF tables
    - mixture fraction table
    - temperature table
    - density table
    - specific heat table
      reading species            1 of  20  2 of  20  3 of  20  4 of  20  5 of  20  6 of  20  7 of  20  8 of  20  9 of  20 10 of  20 11 of  20 12 of  20 13 of  20 14 of  20 15 of  20 16 of  20 17 of  20 18 of  20 19 of  20 20 of  20
    - species mole fraction table

  Read intermediate data
Read 20 species (sectioned c, 3D prepdf)
PDF file successfully read.

Material no:
  Changing method of "Viscosity" to "constant" -- data required.

Done.

Reading journal file F:\calculations\5nozzle-DLN2.6SIZE-NEW\postprocessing\1nozzle\48\48-1\48-145plane.txt...

> /file/set-tui-version "22.2"

> (cx-gui-do cx-activate-item "Ribbon*Frame1*Frame2(Domain)*Table1*Table3(Surface)*PushButton1(Create)")



> (cx-gui-do cx-activate-item "MenuBar*PopupMenuCreate*Plane...")



> (cx-gui-do cx-set-list-selections "Plane Surface*Table1*Table2(Method)*DropDownList1" '( 4))



> (cx-gui-do cx-activate-item "Plane Surface*Table1*Table2(Method)*DropDownList1")



> (cx-gui-do cx-set-text-entry "Plane Surface*Table1*Table1*TextEntry1(New Surface Name)" "far")



> (cx-gui-do cx-set-real-entry-list "Plane Surface*Table1*Frame4*Table1*Table1(Point 1)*RealEntry1(X)" '( 192))



> (cx-gui-do cx-activate-item "Plane Surface*Table1*Frame4*Table1*Table1(Point 1)*RealEntry1(X)")



> (cx-gui-do cx-set-real-entry-list "Plane Surface*Table1*Frame4*Table1*Table1(Point 1)*RealEntry2(Y)" '( 0))



> (cx-gui-do cx-activate-item "Plane Surface*Table1*Frame4*Table1*Table1(Point 1)*RealEntry2(Y)")



> (cx-gui-do cx-set-real-entry-list "Plane Surface*Table1*Frame4*Table1*Table1(Point 1)*RealEntry3(Z)" '( -384))



> (cx-gui-do cx-activate-item "Plane Surface*Table1*Frame4*Table1*Table1(Point 1)*RealEntry3(Z)")



> (cx-gui-do cx-set-real-entry-list "Plane Surface*Table1*Frame4*Table1*Table2(Point 2)*RealEntry1(X)" '( 0))



> (cx-gui-do cx-activate-item "Plane Surface*Table1*Frame4*Table1*Table2(Point 2)*RealEntry1(X)")



> (cx-gui-do cx-set-real-entry-list "Plane Surface*Table1*Frame4*Table1*Table2(Point 2)*RealEntry2(Y)" '( -192))



> (cx-gui-do cx-activate-item "Plane Surface*Table1*Frame4*Table1*Table2(Point 2)*RealEntry2(Y)")



> (cx-gui-do cx-set-real-entry-list "Plane Surface*Table1*Frame4*Table1*Table2(Point 2)*RealEntry3(Z)" '( -384))



> (cx-gui-do cx-activate-item "Plane Surface*Table1*Frame4*Table1*Table2(Point 2)*RealEntry3(Z)")



> (cx-gui-do cx-set-real-entry-list "Plane Surface*Table1*Frame4*Table1*Table3(Point 3)*RealEntry1(X)" '( 192))



> (cx-gui-do cx-activate-item "Plane Surface*Table1*Frame4*Table1*Table3(Point 3)*RealEntry1(X)")



> (cx-gui-do cx-set-real-entry-list "Plane Surface*Table1*Frame4*Table1*Table3(Point 3)*RealEntry2(Y)" '( 0))



> (cx-gui-do cx-activate-item "Plane Surface*Table1*Frame4*Table1*Table3(Point 3)*RealEntry2(Y)")



> (cx-gui-do cx-set-real-entry-list "Plane Surface*Table1*Frame4*Table1*Table3(Point 3)*RealEntry3(Z)" '( -8))



> (cx-gui-do cx-activate-item "Plane Surface*Table1*Frame4*Table1*Table3(Point 3)*RealEntry3(Z)")



> (cx-gui-do cx-activate-item "Plane Surface*PanelButtons*PushButton1(OK)")
(cx-gui-do cx-activate-item "Plane Surface*PanelButtons*PushButton1(OK)")

Error: Surface creation failed!

Error Object: #f



> (cx-gui-do cx-activate-item "Plane Surface*PanelButtons*PushButton2(Cancel)")
(cx-gui-do cx-activate-item "Plane Surface*PanelButtons*PushButton2(Cancel)")



> (cx-gui-do cx-activate-item "MenuBar*WriteSubMenu*Stop Journal")



> 
Reading journal file F:\calculations\5nozzle-DLN2.6SIZE-NEW\postprocessing\1nozzle\48\48-1\48-145.txt...

> /file/set-tui-version "22.2"

> (cx-gui-do cx-activate-item "MenuBar*ExportSubMenu*Solution Data...")



> (cx-gui-do cx-set-list-selections "Export*Table1*Table1*DropDownList2(File Type)" '( 13))



> (cx-gui-do cx-activate-item "Export*Table1*Table1*DropDownList2(File Type)")



> (cx-gui-do cx-set-list-selections "Export*Table1*Table2*Table4*List1(Quantities)" '( 0))



> (cx-gui-do cx-activate-item "Export*Table1*Table2*Table4*List1(Quantities)")



> (cx-gui-do cx-set-list-selections "Export*Table1*Table2*Table4*List1(Quantities)" '( 0 8))



> (cx-gui-do cx-activate-item "Export*Table1*Table2*Table4*List1(Quantities)")



> (cx-gui-do cx-set-list-selections "Export*Table1*Table2*Table4*List1(Quantities)" '( 0 8 9))



> (cx-gui-do cx-activate-item "Export*Table1*Table2*Table4*List1(Quantities)")



> (cx-gui-do cx-set-list-selections "Export*Table1*Table2*Table4*List1(Quantities)" '( 0 8 9 10))



> (cx-gui-do cx-activate-item "Export*Table1*Table2*Table4*List1(Quantities)")



> (cx-gui-do cx-set-list-selections "Export*Table1*Table2*Table4*List1(Quantities)" '( 0 8 9 10 11))



> (cx-gui-do cx-activate-item "Export*Table1*Table2*Table4*List1(Quantities)")



> (cx-gui-do cx-set-list-selections "Export*Table1*Table2*Table4*List1(Quantities)" '( 0 8 9 10 11 25))



> (cx-gui-do cx-activate-item "Export*Table1*Table2*Table4*List1(Quantities)")



> (cx-gui-do cx-set-list-selections "Export*Table1*Table2*Table4*List1(Quantities)" '( 0 8 9 10 11 25 26))



> (cx-gui-do cx-activate-item "Export*Table1*Table2*Table4*List1(Quantities)")



> (cx-gui-do cx-set-list-selections "Export*Table1*Table2*Table4*List1(Quantities)" '( 0 8 9 10 11 25 26 27))



> (cx-gui-do cx-activate-item "Export*Table1*Table2*Table4*List1(Quantities)")



> (cx-gui-do cx-set-list-selections "Export*Table1*Table2*Table4*List1(Quantities)" '( 0 8 9 10 11 25 26 27 28))



> (cx-gui-do cx-activate-item "Export*Table1*Table2*Table4*List1(Quantities)")



> (cx-gui-do cx-set-list-selections "Export*Table1*Table2*Table4*List1(Quantities)" '( 0 8 9 10 11 25 26 27 28 29))



> (cx-gui-do cx-activate-item "Export*Table1*Table2*Table4*List1(Quantities)")



> (cx-gui-do cx-set-list-selections "Export*Table1*Table2*Table4*List1(Quantities)" '( 0 8 9 10 11 25 26 27 28 29 31))



> (cx-gui-do cx-activate-item "Export*Table1*Table2*Table4*List1(Quantities)")



> (cx-gui-do cx-set-list-selections "Export*Table1*Table2*Table4*List1(Quantities)" '( 0 8 9 10 11 25 26 27 28 29 31 32))



> (cx-gui-do cx-activate-item "Export*Table1*Table2*Table4*List1(Quantities)")



> (cx-gui-do cx-set-list-selections "Export*Table1*Table2*Table4*List1(Quantities)" '( 0 8 9 10 11 25 26 27 28 29 31 32 34))



> (cx-gui-do cx-activate-item "Export*Table1*Table2*Table4*List1(Quantities)")



> (cx-gui-do cx-set-list-selections "Export*Table1*Table2*Table4*List1(Quantities)" '( 0 8 9 10 11 25 26 27 28 29 31 32 34 50))



> (cx-gui-do cx-activate-item "Export*Table1*Table2*Table4*List1(Quantities)")



> (cx-gui-do cx-set-list-selections "Export*Table1*Table2*Table4*List1(Quantities)" '( 0 8 9 10 11 25 26 27 28 29 31 32 34 50 51))



> (cx-gui-do cx-activate-item "Export*Table1*Table2*Table4*List1(Quantities)")



> (cx-gui-do cx-set-list-selections "Export*Table1*Table2*Table4*List1(Quantities)" '( 0 8 9 10 11 25 26 27 28 29 31 32 34 50 51 52))



> (cx-gui-do cx-activate-item "Export*Table1*Table2*Table4*List1(Quantities)")



> (cx-gui-do cx-set-list-selections "Export*Table1*Table2*Table4*List1(Quantities)" '( 0 8 9 10 11 25 26 27 28 29 31 32 34 50 51 52 69))



> (cx-gui-do cx-activate-item "Export*Table1*Table2*Table4*List1(Quantities)")



> (cx-gui-do cx-set-list-selections "Export*Table1*Table2*Table4*List1(Quantities)" '( 0 8 9 10 11 25 26 27 28 29 31 32 34 50 51 52 69 76))



> (cx-gui-do cx-activate-item "Export*Table1*Table2*Table4*List1(Quantities)")



> (cx-gui-do cx-set-list-selections "Export*Table1*Table2*Table4*List1(Quantities)" '( 0 8 9 10 11 25 26 27 28 29 31 32 34 50 51 52 69 76 142))



> (cx-gui-do cx-activate-item "Export*Table1*Table2*Table4*List1(Quantities)")



> (cx-gui-do cx-set-list-selections "Export*Table1*Table2*Table4*List1(Quantities)" '( 0 8 9 10 11 25 26 27 28 29 31 32 34 50 51 52 69 76 142 146))



> (cx-gui-do cx-activate-item "Export*Table1*Table2*Table4*List1(Quantities)")



> (cx-gui-do cx-set-list-selections "Export*Table1*Table2*Table4*List1(Quantities)" '( 0 8 9 10 11 25 26 27 28 29 31 32 34 50 51 52 69 76 142 146 149))



> (cx-gui-do cx-activate-item "Export*Table1*Table2*Table4*List1(Quantities)")



> (cx-gui-do cx-set-list-selections "Export*Table1*Table2*Table4*List1(Quantities)" '( 0 8 9 10 11 25 26 27 28 29 31 32 34 50 51 52 69 76 142 146 149 151))



> (cx-gui-do cx-activate-item "Export*Table1*Table2*Table4*List1(Quantities)")



> (cx-gui-do cx-set-list-selections "Export*Table1*Table2*Table4*List1(Quantities)" '( 0 8 9 10 11 25 26 27 28 29 31 32 34 50 51 52 69 76 142 146 149 151 152))



> (cx-gui-do cx-activate-item "Export*Table1*Table2*Table4*List1(Quantities)")



> (cx-gui-do cx-set-list-selections "Export*Table1*Table2*Table4*List1(Quantities)" '( 0 8 9 10 11 25 26 27 28 29 31 32 34 50 51 52 69 76 142 146 149 151 152 153))



> (cx-gui-do cx-activate-item "Export*Table1*Table2*Table4*List1(Quantities)")



> (cx-gui-do cx-set-list-selections "Export*Table1*Table2*Table3*List1(Surfaces)" '( 6))



> (cx-gui-do cx-activate-item "Export*Table1*Table2*Table3*List1(Surfaces)")



> (cx-gui-do cx-activate-item "Export*PanelButtons*PushButton1(OK)")
(cx-gui-do cx-activate-item "Export*PanelButtons*PushButton1(OK)")



> (cx-gui-do cx-set-file-dialog-entries "Select File" '( "F:\calculations\5nozzle-DLN2.6SIZE-NEW\postprocessing\1nozzle\48\48-1\45.plt") "Tecplot Files ()")

Opening library "C:\\PROGRA~1\\ANSYS Inc\\v222\\fluent\\fluent22.2.0\\vki\\win64\\devtools4.4.6.dll"... done.


Writing "F:\\calculations\\5nozzle-DLN2.6SIZE-NEW\\postprocessing\\1nozzle\\48\\48-1\\45.plt"
    1270 nodes written.
     674 elements written.
       1 node sets written.

Error at host: pressure data not available


===============Message from the Cortex Process================================

Compute processes interrupted. Processing can be resumed.

==============================================================================

Error: pressure data not available\n
Error Object: #f



Error at Node 2: pressure data not available


Error at Node 1: pressure data not available


Error at Node 6: pressure data not available


Error at Node 8: pressure data not available


Error at Node 4: pressure data not available


Error at Node 0: pressure data not available


Error at Node 3: pressure data not available


Error at Node 5: pressure data not available


Error at Node 9: pressure data not available


Error at Node 7: pressure data not available


Error at Node 10: pressure data not available


> (cx-gui-do cx-activate-item "Export*Table1*Table2*Table3*List1(Surfaces)")



> (cx-gui-do cx-set-list-selections "Export*Table1*Table2*Table3*List1(Surfaces)" '())



> (cx-gui-do cx-activate-item "Export*PanelButtons*PushButton2(Cancel)")
(cx-gui-do cx-activate-item "Export*PanelButtons*PushButton2(Cancel)")



> (cx-gui-do cx-activate-item "MenuBar*WriteSubMenu*Stop Journal")



