Auto-Transcript Start Time:  14:10:51, 20 Sep 2023 中国标准时间 
Current Directory: "E:\1-python-in-daily-use"
Information: The server has started and is running.

              Welcome to ANSYS Fluent 2022 R2

              Copyright 1987-2022 ANSYS, Inc. All Rights Reserved.
              Unauthorized use, distribution or duplication is prohibited.
              This product is subject to U.S. laws governing export and re-export.
              For full Legal Notice, see documentation.

Build Time: May 27 2022 08:52:58 EDT  Build Id: 10212  
 
Connected License Server List:	1055@localhost
Host spawning Node 0 on machine "WIN-I21RD2LCQ0C" (win64).

-----------------------------------------------------------------------------------
ID    Hostname         Core   O.S.         PID    Vendor                          
-----------------------------------------------------------------------------------
n10   WIN-I21RD2LCQ0C  11/12  Windows-x64  7224   Intel(R) Core(TM) i7-8750H      
n9    WIN-I21RD2LCQ0C  10/12  Windows-x64  8268   Intel(R) Core(TM) i7-8750H      
n8    WIN-I21RD2LCQ0C  9/12   Windows-x64  15536  Intel(R) Core(TM) i7-8750H      
n7    WIN-I21RD2LCQ0C  8/12   Windows-x64  16488  Intel(R) Core(TM) i7-8750H      
n6    WIN-I21RD2LCQ0C  7/12   Windows-x64  20400  Intel(R) Core(TM) i7-8750H      
n5    WIN-I21RD2LCQ0C  6/12   Windows-x64  15348  Intel(R) Core(TM) i7-8750H      
n4    WIN-I21RD2LCQ0C  5/12   Windows-x64  12060  Intel(R) Core(TM) i7-8750H      
n3    WIN-I21RD2LCQ0C  4/12   Windows-x64  18900  Intel(R) Core(TM) i7-8750H      
n2    WIN-I21RD2LCQ0C  3/12   Windows-x64  10744  Intel(R) Core(TM) i7-8750H      
n1    WIN-I21RD2LCQ0C  2/12   Windows-x64  10232  Intel(R) Core(TM) i7-8750H      
n0*   WIN-I21RD2LCQ0C  1/12   Windows-x64  8572   Intel(R) Core(TM) i7-8750H      
host  WIN-I21RD2LCQ0C         Windows-x64  7032   Intel(R) Core(TM) i7-8750H      

MPI Option Selected: intel
Selected system interconnect: default
-----------------------------------------------------------------------------------

Cleanup script file is E:\\1-python-in-daily-use\\cleanup-fluent-WIN-I21RD2LCQ0C-7032.bat

> Fast-loading "C:\PROGRA~1\ANSYS Inc\v222\fluent\fluent22.2.0\\addons\afd\lib\hdfio.bin"
Done.
Multicore SMT processors detected. Processor affinity set!

Reading from WIN-I21RD2LCQ0C:"G:\calculations\1-5nozzle-fullgridandcorexperiment\1nozzle\48\48-1\48-1-0912.cas.h5" in NODE0 mode ...
  Reading mesh ...
     8736228 cells,     1 cell zone  ...
        8736228 mixed cells,  zone id: 7368
    31516610 faces,     8 face zones ...
         380908 polygonal wall faces,  zone id: 7376
          41176 polygonal pressure-outlet faces,  zone id: 7
            665 polygonal mass-flow-inlet faces,  zone id: 6
            670 polygonal mass-flow-inlet faces,  zone id: 5
            679 polygonal mass-flow-inlet faces,  zone id: 4
            674 polygonal mass-flow-inlet faces,  zone id: 3
            673 polygonal mass-flow-inlet faces,  zone id: 227
       31091165 mixed interior faces,  zone id: 7369
    15185679 nodes,     1 node zone  ...
  Done.


Building...
     mesh
	distributing mesh
		parts...........,
		faces...........,
		nodes...........,
		cells...........,
        bandwidth reduction using Reverse Cuthill-McKee: 805737/9530 = 84.5474
     materials,
     interface,
     domains,
	mixture
     zones,
	zone48-0.25:48-0.25---1
	outlet
	interior-62
	inlet-middle
	inlet-1
	inlet-2
	inlet-3
	inlet-4
	zone48-0.25:48-0.25---1:60
     parallel,

Reading "G:\calculations\1-5nozzle-fullgridandcorexperiment\1nozzle\48\48-1\48-1.pdf"...

	Version of the file: "fluent2021r2" 
  Read PDF case variables
	Type of the PDF Table: Nonadiabatic Table with FGM Model (Two Streams) 
  Read species data
  Read stream inlets
  Read PDF tables
    - mixture fraction table
    - temperature table
    - density table
    - specific heat table
      reading species            1 of  20  2 of  20  3 of  20  4 of  20  5 of  20  6 of  20  7 of  20  8 of  20  9 of  20 10 of  20 11 of  20 12 of  20 13 of  20 14 of  20 15 of  20 16 of  20 17 of  20 18 of  20 19 of  20 20 of  20
    - species mole fraction table

  Read intermediate data
Read 20 species (sectioned c, 3D prepdf)
PDF file successfully read.

Material no:
  Changing method of "Viscosity" to "constant" -- data required.

Done.

Reading from WIN-I21RD2LCQ0C:"G:\calculations\1-5nozzle-fullgridandcorexperiment\1nozzle\48\48-1\48-1-0912.dat.h5" in NODE0 mode ...


  Reading results.
Parallel variables...

 turbulent viscosity limited to viscosity ratio of 1.000000e+05 in 133049 cells 
Done.

Reading journal file G:\calculations\1-5nozzle-fullgridandcorexperiment\postprocessing\1nozzle\48\48-1\dataexport_new.txt...

> /file/set-tui-version "22.2"

> (cx-gui-do cx-activate-item "MenuBar*ExportSubMenu*Solution Data...")



> (cx-gui-do cx-set-list-selections "Export*Table1*Table1*DropDownList2(File Type)" '( 13))



> (cx-gui-do cx-activate-item "Export*Table1*Table1*DropDownList2(File Type)")



> (cx-gui-do cx-set-list-selections "Export*Table1*Table2*Table4*List1(Quantities)" '( 0 8 9 10 11 25 26 27 28 29 31 32 34 50 51 52 69 75 76 142 146 149 151 152 153))



> (cx-gui-do cx-activate-item "Export*Table1*Table2*Table4*List1(Quantities)")



> (cx-gui-do cx-set-list-selections "Export*Table1*Table2*Table3*List1(Surfaces)" '( 0))



> (cx-gui-do cx-activate-item "Export*Table1*Table2*Table3*List1(Surfaces)")



> (cx-gui-do cx-activate-item "Export*PanelButtons*PushButton1(OK)")
(cx-gui-do cx-activate-item "Export*PanelButtons*PushButton1(OK)")



> (cx-gui-do cx-set-file-dialog-entries "Select File" '( "G:\calculations\1-5nozzle-fullgridandcorexperiment\postprocessing\1nozzle\48\48-1\central-1.plt") "Tecplot Files ()")

Opening library "C:\\PROGRA~1\\ANSYS Inc\\v222\\fluent\\fluent22.2.0\\vki\\win64\\devtools4.4.6.dll"... done.


Writing "G:\\calculations\\1-5nozzle-fullgridandcorexperiment\\postprocessing\\1nozzle\\48\\48-1\\central-1.plt"
   72580 nodes written.
   59769 elements written.
       1 node sets written.
         pressure is written as result for 72580 nodes
         velocity-magnitude is written as result for 72580 nodes
         x-velocity is written as result for 72580 nodes
         y-velocity is written as result for 72580 nodes
         z-velocity is written as result for 72580 nodes
         vorticity-mag is written as result for 72580 nodes
         helicity is written as result for 72580 nodes
         x-vorticity is written as result for 72580 nodes
         y-vorticity is written as result for 72580 nodes
         z-vorticity is written as result for 72580 nodes
         q-criterion is written as result for 72580 nodes
         raw-q-criterion is written as result for 72580 nodes
         temperature is written as result for 72580 nodes
         turb-kinetic-energy is written as result for 72580 nodes
         turb-intensity is written as result for 72580 nodes
         turb-diss-rate is written as result for 72580 nodes
         oh is written as result for 72580 nodes
         ch2o is written as result for 72580 nodes
         no is written as result for 72580 nodes
         fmean is written as result for 72580 nodes
         heat-release-rate is written as result for 72580 nodes
         premixc is written as result for 72580 nodes
         damkohler-number is written as result for 72580 nodes
         stretch-fac is written as result for 72580 nodes
         turbulent-flame-speed is written as result for 72580 nodes
Done. 

Closing library "C:\\PROGRA~1\\ANSYS Inc\\v222\\fluent\\fluent22.2.0\\vki\\win64\\devtools4.4.6.dll"... done.




> (cx-gui-do cx-activate-item "Export*Table1*Table2*Table3*List1(Surfaces)")



> (cx-gui-do cx-set-list-selections "Export*Table1*Table2*Table3*List1(Surfaces)" '())



> (cx-gui-do cx-activate-item "Export*Table1*Table2*Table3*List1(Surfaces)")



> (cx-gui-do cx-set-list-selections "Export*Table1*Table2*Table3*List1(Surfaces)" '( 1))



> (cx-gui-do cx-activate-item "Export*Table1*Table2*Table3*List1(Surfaces)")



> (cx-gui-do cx-activate-item "Export*PanelButtons*PushButton1(OK)")
(cx-gui-do cx-activate-item "Export*PanelButtons*PushButton1(OK)")



> (cx-gui-do cx-set-file-dialog-entries "Select File" '( "G:\calculations\1-5nozzle-fullgridandcorexperiment\postprocessing\1nozzle\48\48-1\central-2.plt") "Tecplot Files ()")

Opening library "C:\\PROGRA~1\\ANSYS Inc\\v222\\fluent\\fluent22.2.0\\vki\\win64\\devtools4.4.6.dll"... done.


Writing "G:\\calculations\\1-5nozzle-fullgridandcorexperiment\\postprocessing\\1nozzle\\48\\48-1\\central-2.plt"
   73244 nodes written.
   60135 elements written.
       1 node sets written.
         pressure is written as result for 73244 nodes
         velocity-magnitude is written as result for 73244 nodes
         x-velocity is written as result for 73244 nodes
         y-velocity is written as result for 73244 nodes
         z-velocity is written as result for 73244 nodes
         vorticity-mag is written as result for 73244 nodes
         helicity is written as result for 73244 nodes
         x-vorticity is written as result for 73244 nodes
         y-vorticity is written as result for 73244 nodes
         z-vorticity is written as result for 73244 nodes
         q-criterion is written as result for 73244 nodes
         raw-q-criterion is written as result for 73244 nodes
         temperature is written as result for 73244 nodes
         turb-kinetic-energy is written as result for 73244 nodes
         turb-intensity is written as result for 73244 nodes
         turb-diss-rate is written as result for 73244 nodes
         oh is written as result for 73244 nodes
         ch2o is written as result for 73244 nodes
         no is written as result for 73244 nodes
         fmean is written as result for 73244 nodes
         heat-release-rate is written as result for 73244 nodes
         premixc is written as result for 73244 nodes
         damkohler-number is written as result for 73244 nodes
         stretch-fac is written as result for 73244 nodes
         turbulent-flame-speed is written as result for 73244 nodes
Done. 

Closing library "C:\\PROGRA~1\\ANSYS Inc\\v222\\fluent\\fluent22.2.0\\vki\\win64\\devtools4.4.6.dll"... done.




> (cx-gui-do cx-set-list-selections "Export*Table1*Table2*Table3*List1(Surfaces)" '( 6))



> (cx-gui-do cx-activate-item "Export*Table1*Table2*Table3*List1(Surfaces)")



> (cx-gui-do cx-activate-item "Export*PanelButtons*PushButton1(OK)")
(cx-gui-do cx-activate-item "Export*PanelButtons*PushButton1(OK)")



> (cx-gui-do cx-set-file-dialog-entries "Select File" '( "G:\calculations\1-5nozzle-fullgridandcorexperiment\postprocessing\1nozzle\48\48-1\45-0912.plt") "Tecplot Files ()")

Opening library "C:\\PROGRA~1\\ANSYS Inc\\v222\\fluent\\fluent22.2.0\\vki\\win64\\devtools4.4.6.dll"... done.


Writing "G:\\calculations\\1-5nozzle-fullgridandcorexperiment\\postprocessing\\1nozzle\\48\\48-1\\45-0912.plt"
   79085 nodes written.
   69201 elements written.
       1 node sets written.
         pressure is written as result for 79085 nodes
         velocity-magnitude is written as result for 79085 nodes
         x-velocity is written as result for 79085 nodes
         y-velocity is written as result for 79085 nodes
         z-velocity is written as result for 79085 nodes
         vorticity-mag is written as result for 79085 nodes
         helicity is written as result for 79085 nodes
         x-vorticity is written as result for 79085 nodes
         y-vorticity is written as result for 79085 nodes
         z-vorticity is written as result for 79085 nodes
         q-criterion is written as result for 79085 nodes
         raw-q-criterion is written as result for 79085 nodes
         temperature is written as result for 79085 nodes
         turb-kinetic-energy is written as result for 79085 nodes
         turb-intensity is written as result for 79085 nodes
         turb-diss-rate is written as result for 79085 nodes
         oh is written as result for 79085 nodes
         ch2o is written as result for 79085 nodes
         no is written as result for 79085 nodes
         fmean is written as result for 79085 nodes
         heat-release-rate is written as result for 79085 nodes
         premixc is written as result for 79085 nodes
         damkohler-number is written as result for 79085 nodes
         stretch-fac is written as result for 79085 nodes
         turbulent-flame-speed is written as result for 79085 nodes
Done. 

Closing library "C:\\PROGRA~1\\ANSYS Inc\\v222\\fluent\\fluent22.2.0\\vki\\win64\\devtools4.4.6.dll"... done.




> (cx-gui-do cx-activate-item "Export*Table1*Table2*Table3*List1(Surfaces)")



> (cx-gui-do cx-set-list-selections "Export*Table1*Table2*Table3*List1(Surfaces)" '())



> (cx-gui-do cx-activate-item "Export*PanelButtons*PushButton2(Cancel)")
(cx-gui-do cx-activate-item "Export*PanelButtons*PushButton2(Cancel)")



> (cx-gui-do cx-activate-item "MenuBar*WriteSubMenu*Stop Journal")



> Multicore SMT processors detected. Processor affinity set!

Error: list-remove: null list
Error Object: #f

       Clearing partially read grid.

Reading from WIN-I21RD2LCQ0C:"G:\calculations\1-5nozzle-fullgridandcorexperiment\1nozzle\48\48-0.9\48-0.9-0912.cas.h5" in NODE0 mode ...
  Reading mesh ...
     8736228 cells,     1 cell zone  ...
        8736228 mixed cells,  zone id: 7368
    31516610 faces,     8 face zones ...
         380908 polygonal wall faces,  zone id: 7376
          41176 polygonal pressure-outlet faces,  zone id: 7
            665 polygonal mass-flow-inlet faces,  zone id: 6
            670 polygonal mass-flow-inlet faces,  zone id: 5
            679 polygonal mass-flow-inlet faces,  zone id: 4
            674 polygonal mass-flow-inlet faces,  zone id: 3
            673 polygonal mass-flow-inlet faces,  zone id: 227
       31091165 mixed interior faces,  zone id: 7369
    15185679 nodes,     1 node zone  ...
  Done.


Building...
     mesh
	distributing mesh
		parts...........,
		faces...........,
		nodes...........,
		cells...........,
        bandwidth reduction using Reverse Cuthill-McKee: 805737/9530 = 84.5474
     materials,
     interface,
     domains,
	mixture
     zones,
	zone48-0.25:48-0.25---1
	outlet
	interior-62
	inlet-middle
	inlet-1
	inlet-2
	inlet-3
	inlet-4
	zone48-0.25:48-0.25---1:60
     parallel,

Reading "G:\calculations\1-5nozzle-fullgridandcorexperiment\1nozzle\48\48-0.9\48-0.9.pdf"...

	Version of the file: "fluent2021r2" 
  Read PDF case variables
	Type of the PDF Table: Nonadiabatic Table with FGM Model (Two Streams) 
  Read species data
  Read stream inlets
  Read PDF tables
    - mixture fraction table
    - temperature table
    - density table
    - specific heat table
      reading species            1 of  20  2 of  20  3 of  20  4 of  20  5 of  20  6 of  20  7 of  20  8 of  20  9 of  20 10 of  20 11 of  20 12 of  20 13 of  20 14 of  20 15 of  20 16 of  20 17 of  20 18 of  20 19 of  20 20 of  20
    - species mole fraction table

  Read intermediate data
Read 20 species (sectioned c, 3D prepdf)
PDF file successfully read.

Done.

Reading from WIN-I21RD2LCQ0C:"G:\calculations\1-5nozzle-fullgridandcorexperiment\1nozzle\48\48-0.9\48-0.9-0912.dat.h5" in NODE0 mode ...


  Reading results.
Parallel variables...
Done.

Reading journal file G:\calculations\1-5nozzle-fullgridandcorexperiment\postprocessing\1nozzle\48\48-0.9\dataexport_new.txt...

> /file/set-tui-version "22.2"

> (cx-gui-do cx-activate-item "MenuBar*ExportSubMenu*Solution Data...")



> (cx-gui-do cx-set-list-selections "Export*Table1*Table1*DropDownList2(File Type)" '( 13))



> (cx-gui-do cx-activate-item "Export*Table1*Table1*DropDownList2(File Type)")



> (cx-gui-do cx-set-list-selections "Export*Table1*Table2*Table4*List1(Quantities)" '( 0 8 9 10 11 25 26 27 28 29 31 32 34 50 51 52 69 75 76 142 146 149 151 152 153))



> (cx-gui-do cx-activate-item "Export*Table1*Table2*Table4*List1(Quantities)")



> (cx-gui-do cx-set-list-selections "Export*Table1*Table2*Table3*List1(Surfaces)" '( 0))



> (cx-gui-do cx-activate-item "Export*Table1*Table2*Table3*List1(Surfaces)")



> (cx-gui-do cx-activate-item "Export*PanelButtons*PushButton1(OK)")
(cx-gui-do cx-activate-item "Export*PanelButtons*PushButton1(OK)")



> (cx-gui-do cx-set-file-dialog-entries "Select File" '( "G:\calculations\1-5nozzle-fullgridandcorexperiment\postprocessing\1nozzle\48\48-0.9\central-1.plt") "Tecplot Files ()")

Opening library "C:\\PROGRA~1\\ANSYS Inc\\v222\\fluent\\fluent22.2.0\\vki\\win64\\devtools4.4.6.dll"... done.


Writing "G:\\calculations\\1-5nozzle-fullgridandcorexperiment\\postprocessing\\1nozzle\\48\\48-0.9\\central-1.plt"
   72572 nodes written.
   59762 elements written.
       1 node sets written.
         pressure is written as result for 72572 nodes
         velocity-magnitude is written as result for 72572 nodes
         x-velocity is written as result for 72572 nodes
         y-velocity is written as result for 72572 nodes
         z-velocity is written as result for 72572 nodes
         vorticity-mag is written as result for 72572 nodes
         helicity is written as result for 72572 nodes
         x-vorticity is written as result for 72572 nodes
         y-vorticity is written as result for 72572 nodes
         z-vorticity is written as result for 72572 nodes
         q-criterion is written as result for 72572 nodes
         raw-q-criterion is written as result for 72572 nodes
         temperature is written as result for 72572 nodes
         turb-kinetic-energy is written as result for 72572 nodes
         turb-intensity is written as result for 72572 nodes
         turb-diss-rate is written as result for 72572 nodes
         oh is written as result for 72572 nodes
         ch2o is written as result for 72572 nodes
         no is written as result for 72572 nodes
         fmean is written as result for 72572 nodes
         heat-release-rate is written as result for 72572 nodes
         premixc is written as result for 72572 nodes
         damkohler-number is written as result for 72572 nodes
         stretch-fac is written as result for 72572 nodes
         turbulent-flame-speed is written as result for 72572 nodes
Done. 

Closing library "C:\\PROGRA~1\\ANSYS Inc\\v222\\fluent\\fluent22.2.0\\vki\\win64\\devtools4.4.6.dll"... done.




> (cx-gui-do cx-activate-item "Export*Table1*Table2*Table3*List1(Surfaces)")



> (cx-gui-do cx-set-list-selections "Export*Table1*Table2*Table3*List1(Surfaces)" '())



> (cx-gui-do cx-activate-item "Export*Table1*Table2*Table3*List1(Surfaces)")



> (cx-gui-do cx-set-list-selections "Export*Table1*Table2*Table3*List1(Surfaces)" '( 1))



> (cx-gui-do cx-activate-item "Export*Table1*Table2*Table3*List1(Surfaces)")



> (cx-gui-do cx-activate-item "Export*PanelButtons*PushButton1(OK)")
(cx-gui-do cx-activate-item "Export*PanelButtons*PushButton1(OK)")



> (cx-gui-do cx-set-file-dialog-entries "Select File" '( "G:\calculations\1-5nozzle-fullgridandcorexperiment\postprocessing\1nozzle\48\48-0.9\central-2.plt") "Tecplot Files ()")

Opening library "C:\\PROGRA~1\\ANSYS Inc\\v222\\fluent\\fluent22.2.0\\vki\\win64\\devtools4.4.6.dll"... done.


Writing "G:\\calculations\\1-5nozzle-fullgridandcorexperiment\\postprocessing\\1nozzle\\48\\48-0.9\\central-2.plt"
   73244 nodes written.
   60133 elements written.
       1 node sets written.
         pressure is written as result for 73244 nodes
         velocity-magnitude is written as result for 73244 nodes
         x-velocity is written as result for 73244 nodes
         y-velocity is written as result for 73244 nodes
         z-velocity is written as result for 73244 nodes
         vorticity-mag is written as result for 73244 nodes
         helicity is written as result for 73244 nodes
         x-vorticity is written as result for 73244 nodes
         y-vorticity is written as result for 73244 nodes
         z-vorticity is written as result for 73244 nodes
         q-criterion is written as result for 73244 nodes
         raw-q-criterion is written as result for 73244 nodes
         temperature is written as result for 73244 nodes
         turb-kinetic-energy is written as result for 73244 nodes
         turb-intensity is written as result for 73244 nodes
         turb-diss-rate is written as result for 73244 nodes
         oh is written as result for 73244 nodes
         ch2o is written as result for 73244 nodes
         no is written as result for 73244 nodes
         fmean is written as result for 73244 nodes
         heat-release-rate is written as result for 73244 nodes
         premixc is written as result for 73244 nodes
         damkohler-number is written as result for 73244 nodes
         stretch-fac is written as result for 73244 nodes
         turbulent-flame-speed is written as result for 73244 nodes
Done. 

Closing library "C:\\PROGRA~1\\ANSYS Inc\\v222\\fluent\\fluent22.2.0\\vki\\win64\\devtools4.4.6.dll"... done.




> (cx-gui-do cx-set-list-selections "Export*Table1*Table2*Table3*List1(Surfaces)" '( 6))



> (cx-gui-do cx-activate-item "Export*Table1*Table2*Table3*List1(Surfaces)")



> (cx-gui-do cx-activate-item "Export*PanelButtons*PushButton1(OK)")
(cx-gui-do cx-activate-item "Export*PanelButtons*PushButton1(OK)")



> (cx-gui-do cx-set-file-dialog-entries "Select File" '( "G:\calculations\1-5nozzle-fullgridandcorexperiment\postprocessing\1nozzle\48\48-0.9\45-0912.plt") "Tecplot Files ()")

Opening library "C:\\PROGRA~1\\ANSYS Inc\\v222\\fluent\\fluent22.2.0\\vki\\win64\\devtools4.4.6.dll"... done.


Writing "G:\\calculations\\1-5nozzle-fullgridandcorexperiment\\postprocessing\\1nozzle\\48\\48-0.9\\45-0912.plt"
   79083 nodes written.
   69199 elements written.
       1 node sets written.
         pressure is written as result for 79083 nodes
         velocity-magnitude is written as result for 79083 nodes
         x-velocity is written as result for 79083 nodes
         y-velocity is written as result for 79083 nodes
         z-velocity is written as result for 79083 nodes
         vorticity-mag is written as result for 79083 nodes
         helicity is written as result for 79083 nodes
         x-vorticity is written as result for 79083 nodes
         y-vorticity is written as result for 79083 nodes
         z-vorticity is written as result for 79083 nodes
         q-criterion is written as result for 79083 nodes
         raw-q-criterion is written as result for 79083 nodes
         temperature is written as result for 79083 nodes
         turb-kinetic-energy is written as result for 79083 nodes
         turb-intensity is written as result for 79083 nodes
         turb-diss-rate is written as result for 79083 nodes
         oh is written as result for 79083 nodes
         ch2o is written as result for 79083 nodes
         no is written as result for 79083 nodes
         fmean is written as result for 79083 nodes
         heat-release-rate is written as result for 79083 nodes
         premixc is written as result for 79083 nodes
         damkohler-number is written as result for 79083 nodes
         stretch-fac is written as result for 79083 nodes
         turbulent-flame-speed is written as result for 79083 nodes
Done. 

Closing library "C:\\PROGRA~1\\ANSYS Inc\\v222\\fluent\\fluent22.2.0\\vki\\win64\\devtools4.4.6.dll"... done.




> (cx-gui-do cx-activate-item "Export*Table1*Table2*Table3*List1(Surfaces)")



> (cx-gui-do cx-set-list-selections "Export*Table1*Table2*Table3*List1(Surfaces)" '())



> (cx-gui-do cx-activate-item "Export*PanelButtons*PushButton2(Cancel)")
(cx-gui-do cx-activate-item "Export*PanelButtons*PushButton2(Cancel)")



> (cx-gui-do cx-activate-item "MenuBar*WriteSubMenu*Stop Journal")



> Multicore SMT processors detected. Processor affinity set!

Error: list-remove: null list
Error Object: #f

       Clearing partially read grid.

Reading from WIN-I21RD2LCQ0C:"G:\calculations\1-5nozzle-fullgridandcorexperiment\1nozzle\48\48-0.8\48-0.8-0912.cas.h5" in NODE0 mode ...
  Reading mesh ...
     8736228 cells,     1 cell zone  ...
        8736228 mixed cells,  zone id: 7368
    31516610 faces,     8 face zones ...
         380908 polygonal wall faces,  zone id: 7376
          41176 polygonal pressure-outlet faces,  zone id: 7
            665 polygonal mass-flow-inlet faces,  zone id: 6
            670 polygonal mass-flow-inlet faces,  zone id: 5
            679 polygonal mass-flow-inlet faces,  zone id: 4
            674 polygonal mass-flow-inlet faces,  zone id: 3
            673 polygonal mass-flow-inlet faces,  zone id: 227
       31091165 mixed interior faces,  zone id: 7369
    15185679 nodes,     1 node zone  ...
  Done.


Building...
     mesh
	distributing mesh
		parts...........,
		faces...........,
		nodes...........,
		cells...........,
        bandwidth reduction using Reverse Cuthill-McKee: 805737/9530 = 84.5474
     materials,
     interface,
     domains,
	mixture
     zones,
	zone48-0.25:48-0.25---1
	outlet
	interior-62
	inlet-middle
	inlet-1
	inlet-2
	inlet-3
	inlet-4
	zone48-0.25:48-0.25---1:60
     parallel,

Reading "G:\calculations\1-5nozzle-fullgridandcorexperiment\1nozzle\48\48-0.8\48-0.8.pdf"...

	Version of the file: "fluent2021r2" 
  Read PDF case variables
	Type of the PDF Table: Nonadiabatic Table with FGM Model (Two Streams) 
  Read species data
  Read stream inlets
  Read PDF tables
    - mixture fraction table
    - temperature table
    - density table
    - specific heat table
      reading species            1 of  20  2 of  20  3 of  20  4 of  20  5 of  20  6 of  20  7 of  20  8 of  20  9 of  20 10 of  20 11 of  20 12 of  20 13 of  20 14 of  20 15 of  20 16 of  20 17 of  20 18 of  20 19 of  20 20 of  20
    - species mole fraction table

  Read intermediate data
Read 20 species (sectioned c, 3D prepdf)
PDF file successfully read.

Done.

Reading from WIN-I21RD2LCQ0C:"G:\calculations\1-5nozzle-fullgridandcorexperiment\1nozzle\48\48-0.8\48-0.8-0912.dat.h5" in NODE0 mode ...


  Reading results.
Parallel variables...
Done.

Reading journal file G:\calculations\1-5nozzle-fullgridandcorexperiment\postprocessing\1nozzle\48\48-0.8\dataexport_new.txt...

> /file/set-tui-version "22.2"

> (cx-gui-do cx-activate-item "MenuBar*ExportSubMenu*Solution Data...")



> (cx-gui-do cx-set-list-selections "Export*Table1*Table1*DropDownList2(File Type)" '( 13))



> (cx-gui-do cx-activate-item "Export*Table1*Table1*DropDownList2(File Type)")



> (cx-gui-do cx-set-list-selections "Export*Table1*Table2*Table4*List1(Quantities)" '( 0 8 9 10 11 25 26 27 28 29 31 32 34 50 51 52 69 75 76 142 146 149 151 152 153))



> (cx-gui-do cx-activate-item "Export*Table1*Table2*Table4*List1(Quantities)")



> (cx-gui-do cx-set-list-selections "Export*Table1*Table2*Table3*List1(Surfaces)" '( 0))



> (cx-gui-do cx-activate-item "Export*Table1*Table2*Table3*List1(Surfaces)")



> (cx-gui-do cx-activate-item "Export*PanelButtons*PushButton1(OK)")
(cx-gui-do cx-activate-item "Export*PanelButtons*PushButton1(OK)")



> (cx-gui-do cx-set-file-dialog-entries "Select File" '( "G:\calculations\1-5nozzle-fullgridandcorexperiment\postprocessing\1nozzle\48\48-0.8\central-1.plt") "Tecplot Files ()")

Opening library "C:\\PROGRA~1\\ANSYS Inc\\v222\\fluent\\fluent22.2.0\\vki\\win64\\devtools4.4.6.dll"... done.


Writing "G:\\calculations\\1-5nozzle-fullgridandcorexperiment\\postprocessing\\1nozzle\\48\\48-0.8\\central-1.plt"
   72563 nodes written.
   59757 elements written.
       1 node sets written.
         pressure is written as result for 72563 nodes
         velocity-magnitude is written as result for 72563 nodes
         x-velocity is written as result for 72563 nodes
         y-velocity is written as result for 72563 nodes
         z-velocity is written as result for 72563 nodes
         vorticity-mag is written as result for 72563 nodes
         helicity is written as result for 72563 nodes
         x-vorticity is written as result for 72563 nodes
         y-vorticity is written as result for 72563 nodes
         z-vorticity is written as result for 72563 nodes
         q-criterion is written as result for 72563 nodes
         raw-q-criterion is written as result for 72563 nodes
         temperature is written as result for 72563 nodes
         turb-kinetic-energy is written as result for 72563 nodes
         turb-intensity is written as result for 72563 nodes
         turb-diss-rate is written as result for 72563 nodes
         oh is written as result for 72563 nodes
         ch2o is written as result for 72563 nodes
         no is written as result for 72563 nodes
         fmean is written as result for 72563 nodes
         heat-release-rate is written as result for 72563 nodes
         premixc is written as result for 72563 nodes
         damkohler-number is written as result for 72563 nodes
         stretch-fac is written as result for 72563 nodes
         turbulent-flame-speed is written as result for 72563 nodes
Done. 

Closing library "C:\\PROGRA~1\\ANSYS Inc\\v222\\fluent\\fluent22.2.0\\vki\\win64\\devtools4.4.6.dll"... done.




> (cx-gui-do cx-activate-item "Export*Table1*Table2*Table3*List1(Surfaces)")



> (cx-gui-do cx-set-list-selections "Export*Table1*Table2*Table3*List1(Surfaces)" '())



> (cx-gui-do cx-activate-item "Export*Table1*Table2*Table3*List1(Surfaces)")



> (cx-gui-do cx-set-list-selections "Export*Table1*Table2*Table3*List1(Surfaces)" '( 1))



> (cx-gui-do cx-activate-item "Export*Table1*Table2*Table3*List1(Surfaces)")



> (cx-gui-do cx-activate-item "Export*PanelButtons*PushButton1(OK)")
(cx-gui-do cx-activate-item "Export*PanelButtons*PushButton1(OK)")



> (cx-gui-do cx-set-file-dialog-entries "Select File" '( "G:\calculations\1-5nozzle-fullgridandcorexperiment\postprocessing\1nozzle\48\48-0.8\central-2.plt") "Tecplot Files ()")

Opening library "C:\\PROGRA~1\\ANSYS Inc\\v222\\fluent\\fluent22.2.0\\vki\\win64\\devtools4.4.6.dll"... done.


Writing "G:\\calculations\\1-5nozzle-fullgridandcorexperiment\\postprocessing\\1nozzle\\48\\48-0.8\\central-2.plt"
   73236 nodes written.
   60129 elements written.
       1 node sets written.
         pressure is written as result for 73236 nodes
         velocity-magnitude is written as result for 73236 nodes
         x-velocity is written as result for 73236 nodes
         y-velocity is written as result for 73236 nodes
         z-velocity is written as result for 73236 nodes
         vorticity-mag is written as result for 73236 nodes
         helicity is written as result for 73236 nodes
         x-vorticity is written as result for 73236 nodes
         y-vorticity is written as result for 73236 nodes
         z-vorticity is written as result for 73236 nodes
         q-criterion is written as result for 73236 nodes
         raw-q-criterion is written as result for 73236 nodes
         temperature is written as result for 73236 nodes
         turb-kinetic-energy is written as result for 73236 nodes
         turb-intensity is written as result for 73236 nodes
         turb-diss-rate is written as result for 73236 nodes
         oh is written as result for 73236 nodes
         ch2o is written as result for 73236 nodes
         no is written as result for 73236 nodes
         fmean is written as result for 73236 nodes
         heat-release-rate is written as result for 73236 nodes
         premixc is written as result for 73236 nodes
         damkohler-number is written as result for 73236 nodes
         stretch-fac is written as result for 73236 nodes
         turbulent-flame-speed is written as result for 73236 nodes
Done. 

Closing library "C:\\PROGRA~1\\ANSYS Inc\\v222\\fluent\\fluent22.2.0\\vki\\win64\\devtools4.4.6.dll"... done.




> (cx-gui-do cx-set-list-selections "Export*Table1*Table2*Table3*List1(Surfaces)" '( 6))



> (cx-gui-do cx-activate-item "Export*Table1*Table2*Table3*List1(Surfaces)")



> (cx-gui-do cx-activate-item "Export*PanelButtons*PushButton1(OK)")
(cx-gui-do cx-activate-item "Export*PanelButtons*PushButton1(OK)")



> (cx-gui-do cx-set-file-dialog-entries "Select File" '( "G:\calculations\1-5nozzle-fullgridandcorexperiment\postprocessing\1nozzle\48\48-0.8\45-0912.plt") "Tecplot Files ()")

Opening library "C:\\PROGRA~1\\ANSYS Inc\\v222\\fluent\\fluent22.2.0\\vki\\win64\\devtools4.4.6.dll"... done.


Writing "G:\\calculations\\1-5nozzle-fullgridandcorexperiment\\postprocessing\\1nozzle\\48\\48-0.8\\45-0912.plt"
   79081 nodes written.
   69199 elements written.
       1 node sets written.
         pressure is written as result for 79081 nodes
         velocity-magnitude is written as result for 79081 nodes
         x-velocity is written as result for 79081 nodes
         y-velocity is written as result for 79081 nodes
         z-velocity is written as result for 79081 nodes
         vorticity-mag is written as result for 79081 nodes
         helicity is written as result for 79081 nodes
         x-vorticity is written as result for 79081 nodes
         y-vorticity is written as result for 79081 nodes
         z-vorticity is written as result for 79081 nodes
         q-criterion is written as result for 79081 nodes
         raw-q-criterion is written as result for 79081 nodes
         temperature is written as result for 79081 nodes
         turb-kinetic-energy is written as result for 79081 nodes
         turb-intensity is written as result for 79081 nodes
         turb-diss-rate is written as result for 79081 nodes
         oh is written as result for 79081 nodes
         ch2o is written as result for 79081 nodes
         no is written as result for 79081 nodes
         fmean is written as result for 79081 nodes
         heat-release-rate is written as result for 79081 nodes
         premixc is written as result for 79081 nodes
         damkohler-number is written as result for 79081 nodes
         stretch-fac is written as result for 79081 nodes
         turbulent-flame-speed is written as result for 79081 nodes
Done. 

Closing library "C:\\PROGRA~1\\ANSYS Inc\\v222\\fluent\\fluent22.2.0\\vki\\win64\\devtools4.4.6.dll"... done.




> (cx-gui-do cx-activate-item "Export*Table1*Table2*Table3*List1(Surfaces)")



> (cx-gui-do cx-set-list-selections "Export*Table1*Table2*Table3*List1(Surfaces)" '())



> (cx-gui-do cx-activate-item "Export*PanelButtons*PushButton2(Cancel)")
(cx-gui-do cx-activate-item "Export*PanelButtons*PushButton2(Cancel)")



> (cx-gui-do cx-activate-item "MenuBar*WriteSubMenu*Stop Journal")



> Multicore SMT processors detected. Processor affinity set!

Error: list-remove: null list
Error Object: #f

       Clearing partially read grid.

Reading from WIN-I21RD2LCQ0C:"G:\calculations\1-5nozzle-fullgridandcorexperiment\1nozzle\48\48-0.7\48-0.7-0912.cas.h5" in NODE0 mode ...
  Reading mesh ...
     8736228 cells,     1 cell zone  ...
        8736228 mixed cells,  zone id: 7368
    31516610 faces,     8 face zones ...
         380908 polygonal wall faces,  zone id: 7376
          41176 polygonal pressure-outlet faces,  zone id: 7
            665 polygonal mass-flow-inlet faces,  zone id: 6
            670 polygonal mass-flow-inlet faces,  zone id: 5
            679 polygonal mass-flow-inlet faces,  zone id: 4
            674 polygonal mass-flow-inlet faces,  zone id: 3
            673 polygonal mass-flow-inlet faces,  zone id: 227
       31091165 mixed interior faces,  zone id: 7369
    15185679 nodes,     1 node zone  ...
  Done.


Building...
     mesh
	distributing mesh
		parts...........,
		faces...........,
		nodes...........,
		cells...........,
        bandwidth reduction using Reverse Cuthill-McKee: 805737/9530 = 84.5474
     materials,
     interface,
     domains,
	mixture
     zones,
	zone48-0.25:48-0.25---1
	outlet
	interior-62
	inlet-middle
	inlet-1
	inlet-2
	inlet-3
	inlet-4
	zone48-0.25:48-0.25---1:60
     parallel,

Reading "G:\calculations\1-5nozzle-fullgridandcorexperiment\1nozzle\48\48-0.7\48-0.7.pdf"...

	Version of the file: "fluent2021r2" 
  Read PDF case variables
	Type of the PDF Table: Nonadiabatic Table with FGM Model (Two Streams) 
  Read species data
  Read stream inlets
  Read PDF tables
    - mixture fraction table
    - temperature table
    - density table
    - specific heat table
      reading species            1 of  20  2 of  20  3 of  20  4 of  20  5 of  20  6 of  20  7 of  20  8 of  20  9 of  20 10 of  20 11 of  20 12 of  20 13 of  20 14 of  20 15 of  20 16 of  20 17 of  20 18 of  20 19 of  20 20 of  20
    - species mole fraction table

  Read intermediate data
Read 20 species (sectioned c, 3D prepdf)
PDF file successfully read.

Done.

Reading from WIN-I21RD2LCQ0C:"G:\calculations\1-5nozzle-fullgridandcorexperiment\1nozzle\48\48-0.7\48-0.7-0912.dat.h5" in NODE0 mode ...


  Reading results.
Parallel variables...
Done.

Reading journal file G:\calculations\1-5nozzle-fullgridandcorexperiment\postprocessing\1nozzle\48\48-0.7\dataexport_new.txt...

> /file/set-tui-version "22.2"

> (cx-gui-do cx-activate-item "MenuBar*ExportSubMenu*Solution Data...")



> (cx-gui-do cx-set-list-selections "Export*Table1*Table1*DropDownList2(File Type)" '( 13))



> (cx-gui-do cx-activate-item "Export*Table1*Table1*DropDownList2(File Type)")



> (cx-gui-do cx-set-list-selections "Export*Table1*Table2*Table4*List1(Quantities)" '( 0 8 9 10 11 25 26 27 28 29 31 32 34 50 51 52 69 75 76 142 146 149 151 152 153))



> (cx-gui-do cx-activate-item "Export*Table1*Table2*Table4*List1(Quantities)")



> (cx-gui-do cx-set-list-selections "Export*Table1*Table2*Table3*List1(Surfaces)" '( 0))



> (cx-gui-do cx-activate-item "Export*Table1*Table2*Table3*List1(Surfaces)")



> (cx-gui-do cx-activate-item "Export*PanelButtons*PushButton1(OK)")
(cx-gui-do cx-activate-item "Export*PanelButtons*PushButton1(OK)")



> (cx-gui-do cx-set-file-dialog-entries "Select File" '( "G:\calculations\1-5nozzle-fullgridandcorexperiment\postprocessing\1nozzle\48\48-0.7\central-1.plt") "Tecplot Files ()")

Opening library "C:\\PROGRA~1\\ANSYS Inc\\v222\\fluent\\fluent22.2.0\\vki\\win64\\devtools4.4.6.dll"... done.


Writing "G:\\calculations\\1-5nozzle-fullgridandcorexperiment\\postprocessing\\1nozzle\\48\\48-0.7\\central-1.plt"
   72553 nodes written.
   59753 elements written.
       1 node sets written.
         pressure is written as result for 72553 nodes
         velocity-magnitude is written as result for 72553 nodes
         x-velocity is written as result for 72553 nodes
         y-velocity is written as result for 72553 nodes
         z-velocity is written as result for 72553 nodes
         vorticity-mag is written as result for 72553 nodes
         helicity is written as result for 72553 nodes
         x-vorticity is written as result for 72553 nodes
         y-vorticity is written as result for 72553 nodes
         z-vorticity is written as result for 72553 nodes
         q-criterion is written as result for 72553 nodes
         raw-q-criterion is written as result for 72553 nodes
         temperature is written as result for 72553 nodes
         turb-kinetic-energy is written as result for 72553 nodes
         turb-intensity is written as result for 72553 nodes
         turb-diss-rate is written as result for 72553 nodes
         oh is written as result for 72553 nodes
         ch2o is written as result for 72553 nodes
         no is written as result for 72553 nodes
         fmean is written as result for 72553 nodes
         heat-release-rate is written as result for 72553 nodes
         premixc is written as result for 72553 nodes
         damkohler-number is written as result for 72553 nodes
         stretch-fac is written as result for 72553 nodes
         turbulent-flame-speed is written as result for 72553 nodes
Done. 

Closing library "C:\\PROGRA~1\\ANSYS Inc\\v222\\fluent\\fluent22.2.0\\vki\\win64\\devtools4.4.6.dll"... done.




> (cx-gui-do cx-activate-item "Export*Table1*Table2*Table3*List1(Surfaces)")



> (cx-gui-do cx-set-list-selections "Export*Table1*Table2*Table3*List1(Surfaces)" '())



> (cx-gui-do cx-activate-item "Export*Table1*Table2*Table3*List1(Surfaces)")



> (cx-gui-do cx-set-list-selections "Export*Table1*Table2*Table3*List1(Surfaces)" '( 1))



> (cx-gui-do cx-activate-item "Export*Table1*Table2*Table3*List1(Surfaces)")



> (cx-gui-do cx-activate-item "Export*PanelButtons*PushButton1(OK)")
(cx-gui-do cx-activate-item "Export*PanelButtons*PushButton1(OK)")



> (cx-gui-do cx-set-file-dialog-entries "Select File" '( "G:\calculations\1-5nozzle-fullgridandcorexperiment\postprocessing\1nozzle\48\48-0.7\central-2.plt") "Tecplot Files ()")

Opening library "C:\\PROGRA~1\\ANSYS Inc\\v222\\fluent\\fluent22.2.0\\vki\\win64\\devtools4.4.6.dll"... done.


Writing "G:\\calculations\\1-5nozzle-fullgridandcorexperiment\\postprocessing\\1nozzle\\48\\48-0.7\\central-2.plt"
   73221 nodes written.
   60122 elements written.
       1 node sets written.
         pressure is written as result for 73221 nodes
         velocity-magnitude is written as result for 73221 nodes
         x-velocity is written as result for 73221 nodes
         y-velocity is written as result for 73221 nodes
         z-velocity is written as result for 73221 nodes
         vorticity-mag is written as result for 73221 nodes
         helicity is written as result for 73221 nodes
         x-vorticity is written as result for 73221 nodes
         y-vorticity is written as result for 73221 nodes
         z-vorticity is written as result for 73221 nodes
         q-criterion is written as result for 73221 nodes
         raw-q-criterion is written as result for 73221 nodes
         temperature is written as result for 73221 nodes
         turb-kinetic-energy is written as result for 73221 nodes
         turb-intensity is written as result for 73221 nodes
         turb-diss-rate is written as result for 73221 nodes
         oh is written as result for 73221 nodes
         ch2o is written as result for 73221 nodes
         no is written as result for 73221 nodes
         fmean is written as result for 73221 nodes
         heat-release-rate is written as result for 73221 nodes
         premixc is written as result for 73221 nodes
         damkohler-number is written as result for 73221 nodes
         stretch-fac is written as result for 73221 nodes
         turbulent-flame-speed is written as result for 73221 nodes
Done. 

Closing library "C:\\PROGRA~1\\ANSYS Inc\\v222\\fluent\\fluent22.2.0\\vki\\win64\\devtools4.4.6.dll"... done.




> (cx-gui-do cx-set-list-selections "Export*Table1*Table2*Table3*List1(Surfaces)" '( 6))



> (cx-gui-do cx-activate-item "Export*Table1*Table2*Table3*List1(Surfaces)")



> (cx-gui-do cx-activate-item "Export*PanelButtons*PushButton1(OK)")
(cx-gui-do cx-activate-item "Export*PanelButtons*PushButton1(OK)")



> (cx-gui-do cx-set-file-dialog-entries "Select File" '( "G:\calculations\1-5nozzle-fullgridandcorexperiment\postprocessing\1nozzle\48\48-0.7\45-0912.plt") "Tecplot Files ()")

Opening library "C:\\PROGRA~1\\ANSYS Inc\\v222\\fluent\\fluent22.2.0\\vki\\win64\\devtools4.4.6.dll"... done.


Writing "G:\\calculations\\1-5nozzle-fullgridandcorexperiment\\postprocessing\\1nozzle\\48\\48-0.7\\45-0912.plt"
   79084 nodes written.
   69198 elements written.
       1 node sets written.
         pressure is written as result for 79084 nodes
         velocity-magnitude is written as result for 79084 nodes
         x-velocity is written as result for 79084 nodes
         y-velocity is written as result for 79084 nodes
         z-velocity is written as result for 79084 nodes
         vorticity-mag is written as result for 79084 nodes
         helicity is written as result for 79084 nodes
         x-vorticity is written as result for 79084 nodes
         y-vorticity is written as result for 79084 nodes
         z-vorticity is written as result for 79084 nodes
         q-criterion is written as result for 79084 nodes
         raw-q-criterion is written as result for 79084 nodes
         temperature is written as result for 79084 nodes
         turb-kinetic-energy is written as result for 79084 nodes
         turb-intensity is written as result for 79084 nodes
         turb-diss-rate is written as result for 79084 nodes
         oh is written as result for 79084 nodes
         ch2o is written as result for 79084 nodes
         no is written as result for 79084 nodes
         fmean is written as result for 79084 nodes
         heat-release-rate is written as result for 79084 nodes
         premixc is written as result for 79084 nodes
         damkohler-number is written as result for 79084 nodes
         stretch-fac is written as result for 79084 nodes
         turbulent-flame-speed is written as result for 79084 nodes
Done. 

Closing library "C:\\PROGRA~1\\ANSYS Inc\\v222\\fluent\\fluent22.2.0\\vki\\win64\\devtools4.4.6.dll"... done.




> (cx-gui-do cx-activate-item "Export*Table1*Table2*Table3*List1(Surfaces)")



> (cx-gui-do cx-set-list-selections "Export*Table1*Table2*Table3*List1(Surfaces)" '())



> (cx-gui-do cx-activate-item "Export*PanelButtons*PushButton2(Cancel)")
(cx-gui-do cx-activate-item "Export*PanelButtons*PushButton2(Cancel)")



> (cx-gui-do cx-activate-item "MenuBar*WriteSubMenu*Stop Journal")



> Multicore SMT processors detected. Processor affinity set!

Error: list-remove: null list
Error Object: #f

       Clearing partially read grid.

Reading from WIN-I21RD2LCQ0C:"G:\calculations\1-5nozzle-fullgridandcorexperiment\1nozzle\48\48-0.6\48-0.6-0912.cas.h5" in NODE0 mode ...
  Reading mesh ...
     8736228 cells,     1 cell zone  ...
        8736228 mixed cells,  zone id: 7368
    31516610 faces,     8 face zones ...
         380908 polygonal wall faces,  zone id: 7376
          41176 polygonal pressure-outlet faces,  zone id: 7
            665 polygonal mass-flow-inlet faces,  zone id: 6
            670 polygonal mass-flow-inlet faces,  zone id: 5
            679 polygonal mass-flow-inlet faces,  zone id: 4
            674 polygonal mass-flow-inlet faces,  zone id: 3
            673 polygonal mass-flow-inlet faces,  zone id: 227
       31091165 mixed interior faces,  zone id: 7369
    15185679 nodes,     1 node zone  ...
  Done.


Building...
     mesh
	distributing mesh
		parts...........,
		faces...........,
		nodes...........,
		cells...........,
        bandwidth reduction using Reverse Cuthill-McKee: 805737/9530 = 84.5474
     materials,
     interface,
     domains,
	mixture
     zones,
	zone48-0.25:48-0.25---1
	outlet
	interior-62
	inlet-middle
	inlet-1
	inlet-2
	inlet-3
	inlet-4
	zone48-0.25:48-0.25---1:60
     parallel,

Reading "G:\calculations\1-5nozzle-fullgridandcorexperiment\1nozzle\48\48-0.6\48-0.6.pdf"...

	Version of the file: "fluent2021r2" 
  Read PDF case variables
	Type of the PDF Table: Nonadiabatic Table with FGM Model (Two Streams) 
  Read species data
  Read stream inlets
  Read PDF tables
    - mixture fraction table
    - temperature table
    - density table
    - specific heat table
      reading species            1 of  20  2 of  20  3 of  20  4 of  20  5 of  20  6 of  20  7 of  20  8 of  20  9 of  20 10 of  20 11 of  20 12 of  20 13 of  20 14 of  20 15 of  20 16 of  20 17 of  20 18 of  20 19 of  20 20 of  20
    - species mole fraction table

  Read intermediate data
Read 20 species (sectioned c, 3D prepdf)
PDF file successfully read.

Done.

Reading from WIN-I21RD2LCQ0C:"G:\calculations\1-5nozzle-fullgridandcorexperiment\1nozzle\48\48-0.6\48-0.6-0912.dat.h5" in NODE0 mode ...


  Reading results.
Parallel variables...
Done.

Reading journal file G:\calculations\1-5nozzle-fullgridandcorexperiment\postprocessing\1nozzle\48\48-0.6\dataexport_new.txt...

> /file/set-tui-version "22.2"

> (cx-gui-do cx-activate-item "MenuBar*ExportSubMenu*Solution Data...")



> (cx-gui-do cx-set-list-selections "Export*Table1*Table1*DropDownList2(File Type)" '( 13))



> (cx-gui-do cx-activate-item "Export*Table1*Table1*DropDownList2(File Type)")



> (cx-gui-do cx-set-list-selections "Export*Table1*Table2*Table4*List1(Quantities)" '( 0 8 9 10 11 25 26 27 28 29 31 32 34 50 51 52 69 75 76 142 146 149 151 152 153))



> (cx-gui-do cx-activate-item "Export*Table1*Table2*Table4*List1(Quantities)")



> (cx-gui-do cx-set-list-selections "Export*Table1*Table2*Table3*List1(Surfaces)" '( 0))



> (cx-gui-do cx-activate-item "Export*Table1*Table2*Table3*List1(Surfaces)")



> (cx-gui-do cx-activate-item "Export*PanelButtons*PushButton1(OK)")
(cx-gui-do cx-activate-item "Export*PanelButtons*PushButton1(OK)")



> (cx-gui-do cx-set-file-dialog-entries "Select File" '( "G:\calculations\1-5nozzle-fullgridandcorexperiment\postprocessing\1nozzle\48\48-0.6\central-1.plt") "Tecplot Files ()")

Opening library "C:\\PROGRA~1\\ANSYS Inc\\v222\\fluent\\fluent22.2.0\\vki\\win64\\devtools4.4.6.dll"... done.


Writing "G:\\calculations\\1-5nozzle-fullgridandcorexperiment\\postprocessing\\1nozzle\\48\\48-0.6\\central-1.plt"
   72548 nodes written.
   59747 elements written.
       1 node sets written.
         pressure is written as result for 72548 nodes
         velocity-magnitude is written as result for 72548 nodes
         x-velocity is written as result for 72548 nodes
         y-velocity is written as result for 72548 nodes
         z-velocity is written as result for 72548 nodes
         vorticity-mag is written as result for 72548 nodes
         helicity is written as result for 72548 nodes
         x-vorticity is written as result for 72548 nodes
         y-vorticity is written as result for 72548 nodes
         z-vorticity is written as result for 72548 nodes
         q-criterion is written as result for 72548 nodes
         raw-q-criterion is written as result for 72548 nodes
         temperature is written as result for 72548 nodes
         turb-kinetic-energy is written as result for 72548 nodes
         turb-intensity is written as result for 72548 nodes
         turb-diss-rate is written as result for 72548 nodes
         oh is written as result for 72548 nodes
         ch2o is written as result for 72548 nodes
         no is written as result for 72548 nodes
         fmean is written as result for 72548 nodes
         heat-release-rate is written as result for 72548 nodes
         premixc is written as result for 72548 nodes
         damkohler-number is written as result for 72548 nodes
         stretch-fac is written as result for 72548 nodes
         turbulent-flame-speed is written as result for 72548 nodes
Done. 

Closing library "C:\\PROGRA~1\\ANSYS Inc\\v222\\fluent\\fluent22.2.0\\vki\\win64\\devtools4.4.6.dll"... done.




> (cx-gui-do cx-activate-item "Export*Table1*Table2*Table3*List1(Surfaces)")



> (cx-gui-do cx-set-list-selections "Export*Table1*Table2*Table3*List1(Surfaces)" '())



> (cx-gui-do cx-activate-item "Export*Table1*Table2*Table3*List1(Surfaces)")



> (cx-gui-do cx-set-list-selections "Export*Table1*Table2*Table3*List1(Surfaces)" '( 1))



> (cx-gui-do cx-activate-item "Export*Table1*Table2*Table3*List1(Surfaces)")



> (cx-gui-do cx-activate-item "Export*PanelButtons*PushButton1(OK)")
(cx-gui-do cx-activate-item "Export*PanelButtons*PushButton1(OK)")



> (cx-gui-do cx-set-file-dialog-entries "Select File" '( "G:\calculations\1-5nozzle-fullgridandcorexperiment\postprocessing\1nozzle\48\48-0.6\central-2.plt") "Tecplot Files ()")

Opening library "C:\\PROGRA~1\\ANSYS Inc\\v222\\fluent\\fluent22.2.0\\vki\\win64\\devtools4.4.6.dll"... done.


Writing "G:\\calculations\\1-5nozzle-fullgridandcorexperiment\\postprocessing\\1nozzle\\48\\48-0.6\\central-2.plt"
   73207 nodes written.
   60117 elements written.
       1 node sets written.
         pressure is written as result for 73207 nodes
         velocity-magnitude is written as result for 73207 nodes
         x-velocity is written as result for 73207 nodes
         y-velocity is written as result for 73207 nodes
         z-velocity is written as result for 73207 nodes
         vorticity-mag is written as result for 73207 nodes
         helicity is written as result for 73207 nodes
         x-vorticity is written as result for 73207 nodes
         y-vorticity is written as result for 73207 nodes
         z-vorticity is written as result for 73207 nodes
         q-criterion is written as result for 73207 nodes
         raw-q-criterion is written as result for 73207 nodes
         temperature is written as result for 73207 nodes
         turb-kinetic-energy is written as result for 73207 nodes
         turb-intensity is written as result for 73207 nodes
         turb-diss-rate is written as result for 73207 nodes
         oh is written as result for 73207 nodes
         ch2o is written as result for 73207 nodes
         no is written as result for 73207 nodes
         fmean is written as result for 73207 nodes
         heat-release-rate is written as result for 73207 nodes
         premixc is written as result for 73207 nodes
         damkohler-number is written as result for 73207 nodes
         stretch-fac is written as result for 73207 nodes
         turbulent-flame-speed is written as result for 73207 nodes
Done. 

Closing library "C:\\PROGRA~1\\ANSYS Inc\\v222\\fluent\\fluent22.2.0\\vki\\win64\\devtools4.4.6.dll"... done.




> (cx-gui-do cx-set-list-selections "Export*Table1*Table2*Table3*List1(Surfaces)" '( 6))



> (cx-gui-do cx-activate-item "Export*Table1*Table2*Table3*List1(Surfaces)")



> (cx-gui-do cx-activate-item "Export*PanelButtons*PushButton1(OK)")
(cx-gui-do cx-activate-item "Export*PanelButtons*PushButton1(OK)")



> (cx-gui-do cx-set-file-dialog-entries "Select File" '( "G:\calculations\1-5nozzle-fullgridandcorexperiment\postprocessing\1nozzle\48\48-0.6\45-0912.plt") "Tecplot Files ()")

Opening library "C:\\PROGRA~1\\ANSYS Inc\\v222\\fluent\\fluent22.2.0\\vki\\win64\\devtools4.4.6.dll"... done.


Writing "G:\\calculations\\1-5nozzle-fullgridandcorexperiment\\postprocessing\\1nozzle\\48\\48-0.6\\45-0912.plt"
   79085 nodes written.
   69198 elements written.
       1 node sets written.
         pressure is written as result for 79085 nodes
         velocity-magnitude is written as result for 79085 nodes
         x-velocity is written as result for 79085 nodes
         y-velocity is written as result for 79085 nodes
         z-velocity is written as result for 79085 nodes
         vorticity-mag is written as result for 79085 nodes
         helicity is written as result for 79085 nodes
         x-vorticity is written as result for 79085 nodes
         y-vorticity is written as result for 79085 nodes
         z-vorticity is written as result for 79085 nodes
         q-criterion is written as result for 79085 nodes
         raw-q-criterion is written as result for 79085 nodes
         temperature is written as result for 79085 nodes
         turb-kinetic-energy is written as result for 79085 nodes
         turb-intensity is written as result for 79085 nodes
         turb-diss-rate is written as result for 79085 nodes
         oh is written as result for 79085 nodes
         ch2o is written as result for 79085 nodes
         no is written as result for 79085 nodes
         fmean is written as result for 79085 nodes
         heat-release-rate is written as result for 79085 nodes
         premixc is written as result for 79085 nodes
         damkohler-number is written as result for 79085 nodes
         stretch-fac is written as result for 79085 nodes
         turbulent-flame-speed is written as result for 79085 nodes
Done. 

Closing library "C:\\PROGRA~1\\ANSYS Inc\\v222\\fluent\\fluent22.2.0\\vki\\win64\\devtools4.4.6.dll"... done.




> (cx-gui-do cx-activate-item "Export*Table1*Table2*Table3*List1(Surfaces)")



> (cx-gui-do cx-set-list-selections "Export*Table1*Table2*Table3*List1(Surfaces)" '())



> (cx-gui-do cx-activate-item "Export*PanelButtons*PushButton2(Cancel)")
(cx-gui-do cx-activate-item "Export*PanelButtons*PushButton2(Cancel)")



> (cx-gui-do cx-activate-item "MenuBar*WriteSubMenu*Stop Journal")



> Multicore SMT processors detected. Processor affinity set!

Error: list-remove: null list
Error Object: #f

       Clearing partially read grid.

Reading from WIN-I21RD2LCQ0C:"G:\calculations\1-5nozzle-fullgridandcorexperiment\1nozzle\48\48-0.45\48-0.45-0912.cas.h5" in NODE0 mode ...
  Reading mesh ...
     8736228 cells,     1 cell zone  ...
        8736228 mixed cells,  zone id: 7368
    31516610 faces,     8 face zones ...
         380908 polygonal wall faces,  zone id: 7376
          41176 polygonal pressure-outlet faces,  zone id: 7
            665 polygonal mass-flow-inlet faces,  zone id: 6
            670 polygonal mass-flow-inlet faces,  zone id: 5
            679 polygonal mass-flow-inlet faces,  zone id: 4
            674 polygonal mass-flow-inlet faces,  zone id: 3
            673 polygonal mass-flow-inlet faces,  zone id: 227
       31091165 mixed interior faces,  zone id: 7369
    15185679 nodes,     1 node zone  ...
  Done.


Building...
     mesh
	distributing mesh
		parts...........,
		faces...........,
		nodes...........,
		cells...........,
        bandwidth reduction using Reverse Cuthill-McKee: 805737/9530 = 84.5474
     materials,
     interface,
     domains,
	mixture
     zones,
	zone48-0.25:48-0.25---1
	outlet
	interior-62
	inlet-middle
	inlet-1
	inlet-2
	inlet-3
	inlet-4
	zone48-0.25:48-0.25---1:60
     parallel,

Reading "G:\calculations\1-5nozzle-fullgridandcorexperiment\1nozzle\48\48-0.45\48-0.45.pdf"...

	Version of the file: "fluent2021r2" 
  Read PDF case variables
	Type of the PDF Table: Nonadiabatic Table with FGM Model (Two Streams) 
  Read species data
  Read stream inlets
  Read PDF tables
    - mixture fraction table
    - temperature table
    - density table
    - specific heat table
      reading species            1 of  20  2 of  20  3 of  20  4 of  20  5 of  20  6 of  20  7 of  20  8 of  20  9 of  20 10 of  20 11 of  20 12 of  20 13 of  20 14 of  20 15 of  20 16 of  20 17 of  20 18 of  20 19 of  20 20 of  20
    - species mole fraction table

  Read intermediate data
Read 20 species (sectioned c, 3D prepdf)
PDF file successfully read.

Done.

Reading from WIN-I21RD2LCQ0C:"G:\calculations\1-5nozzle-fullgridandcorexperiment\1nozzle\48\48-0.45\48-0.45-0912.dat.h5" in NODE0 mode ...


  Reading results.
Parallel variables...
Done.

Reading journal file G:\calculations\1-5nozzle-fullgridandcorexperiment\postprocessing\1nozzle\48\48-0.45\dataexport_new.txt...

> /file/set-tui-version "22.2"

> (cx-gui-do cx-activate-item "MenuBar*ExportSubMenu*Solution Data...")



> (cx-gui-do cx-set-list-selections "Export*Table1*Table1*DropDownList2(File Type)" '( 13))



> (cx-gui-do cx-activate-item "Export*Table1*Table1*DropDownList2(File Type)")



> (cx-gui-do cx-set-list-selections "Export*Table1*Table2*Table4*List1(Quantities)" '( 0 8 9 10 11 25 26 27 28 29 31 32 34 50 51 52 69 75 76 142 146 149 151 152 153))



> (cx-gui-do cx-activate-item "Export*Table1*Table2*Table4*List1(Quantities)")



> (cx-gui-do cx-set-list-selections "Export*Table1*Table2*Table3*List1(Surfaces)" '( 0))



> (cx-gui-do cx-activate-item "Export*Table1*Table2*Table3*List1(Surfaces)")



> (cx-gui-do cx-activate-item "Export*PanelButtons*PushButton1(OK)")
(cx-gui-do cx-activate-item "Export*PanelButtons*PushButton1(OK)")



> (cx-gui-do cx-set-file-dialog-entries "Select File" '( "G:\calculations\1-5nozzle-fullgridandcorexperiment\postprocessing\1nozzle\48\48-0.45\central-1.plt") "Tecplot Files ()")

Opening library "C:\\PROGRA~1\\ANSYS Inc\\v222\\fluent\\fluent22.2.0\\vki\\win64\\devtools4.4.6.dll"... done.


Writing "G:\\calculations\\1-5nozzle-fullgridandcorexperiment\\postprocessing\\1nozzle\\48\\48-0.45\\central-1.plt"
   72527 nodes written.
   59741 elements written.
       1 node sets written.
         pressure is written as result for 72527 nodes
         velocity-magnitude is written as result for 72527 nodes
         x-velocity is written as result for 72527 nodes
         y-velocity is written as result for 72527 nodes
         z-velocity is written as result for 72527 nodes
         vorticity-mag is written as result for 72527 nodes
         helicity is written as result for 72527 nodes
         x-vorticity is written as result for 72527 nodes
         y-vorticity is written as result for 72527 nodes
         z-vorticity is written as result for 72527 nodes
         q-criterion is written as result for 72527 nodes
         raw-q-criterion is written as result for 72527 nodes
         temperature is written as result for 72527 nodes
         turb-kinetic-energy is written as result for 72527 nodes
         turb-intensity is written as result for 72527 nodes
         turb-diss-rate is written as result for 72527 nodes
         oh is written as result for 72527 nodes
         ch2o is written as result for 72527 nodes
         no is written as result for 72527 nodes
         fmean is written as result for 72527 nodes
         heat-release-rate is written as result for 72527 nodes
         premixc is written as result for 72527 nodes
         damkohler-number is written as result for 72527 nodes
         stretch-fac is written as result for 72527 nodes
         turbulent-flame-speed is written as result for 72527 nodes
Done. 

Closing library "C:\\PROGRA~1\\ANSYS Inc\\v222\\fluent\\fluent22.2.0\\vki\\win64\\devtools4.4.6.dll"... done.




> (cx-gui-do cx-activate-item "Export*Table1*Table2*Table3*List1(Surfaces)")



> (cx-gui-do cx-set-list-selections "Export*Table1*Table2*Table3*List1(Surfaces)" '())



> (cx-gui-do cx-activate-item "Export*Table1*Table2*Table3*List1(Surfaces)")



> (cx-gui-do cx-set-list-selections "Export*Table1*Table2*Table3*List1(Surfaces)" '( 1))



> (cx-gui-do cx-activate-item "Export*Table1*Table2*Table3*List1(Surfaces)")



> (cx-gui-do cx-activate-item "Export*PanelButtons*PushButton1(OK)")
(cx-gui-do cx-activate-item "Export*PanelButtons*PushButton1(OK)")



> (cx-gui-do cx-set-file-dialog-entries "Select File" '( "G:\calculations\1-5nozzle-fullgridandcorexperiment\postprocessing\1nozzle\48\48-0.45\central-2.plt") "Tecplot Files ()")

Opening library "C:\\PROGRA~1\\ANSYS Inc\\v222\\fluent\\fluent22.2.0\\vki\\win64\\devtools4.4.6.dll"... done.


Writing "G:\\calculations\\1-5nozzle-fullgridandcorexperiment\\postprocessing\\1nozzle\\48\\48-0.45\\central-2.plt"
   73190 nodes written.
   60105 elements written.
       1 node sets written.
         pressure is written as result for 73190 nodes
         velocity-magnitude is written as result for 73190 nodes
         x-velocity is written as result for 73190 nodes
         y-velocity is written as result for 73190 nodes
         z-velocity is written as result for 73190 nodes
         vorticity-mag is written as result for 73190 nodes
         helicity is written as result for 73190 nodes
         x-vorticity is written as result for 73190 nodes
         y-vorticity is written as result for 73190 nodes
         z-vorticity is written as result for 73190 nodes
         q-criterion is written as result for 73190 nodes
         raw-q-criterion is written as result for 73190 nodes
         temperature is written as result for 73190 nodes
         turb-kinetic-energy is written as result for 73190 nodes
         turb-intensity is written as result for 73190 nodes
         turb-diss-rate is written as result for 73190 nodes
         oh is written as result for 73190 nodes
         ch2o is written as result for 73190 nodes
         no is written as result for 73190 nodes
         fmean is written as result for 73190 nodes
         heat-release-rate is written as result for 73190 nodes
         premixc is written as result for 73190 nodes
         damkohler-number is written as result for 73190 nodes
         stretch-fac is written as result for 73190 nodes
         turbulent-flame-speed is written as result for 73190 nodes
Done. 

Closing library "C:\\PROGRA~1\\ANSYS Inc\\v222\\fluent\\fluent22.2.0\\vki\\win64\\devtools4.4.6.dll"... done.




> (cx-gui-do cx-set-list-selections "Export*Table1*Table2*Table3*List1(Surfaces)" '( 6))



> (cx-gui-do cx-activate-item "Export*Table1*Table2*Table3*List1(Surfaces)")



> (cx-gui-do cx-activate-item "Export*PanelButtons*PushButton1(OK)")
(cx-gui-do cx-activate-item "Export*PanelButtons*PushButton1(OK)")



> (cx-gui-do cx-set-file-dialog-entries "Select File" '( "G:\calculations\1-5nozzle-fullgridandcorexperiment\postprocessing\1nozzle\48\48-0.45\45-0912.plt") "Tecplot Files ()")

Opening library "C:\\PROGRA~1\\ANSYS Inc\\v222\\fluent\\fluent22.2.0\\vki\\win64\\devtools4.4.6.dll"... done.


Writing "G:\\calculations\\1-5nozzle-fullgridandcorexperiment\\postprocessing\\1nozzle\\48\\48-0.45\\45-0912.plt"
   79078 nodes written.
   69193 elements written.
       1 node sets written.
         pressure is written as result for 79078 nodes
         velocity-magnitude is written as result for 79078 nodes
         x-velocity is written as result for 79078 nodes
         y-velocity is written as result for 79078 nodes
         z-velocity is written as result for 79078 nodes
         vorticity-mag is written as result for 79078 nodes
         helicity is written as result for 79078 nodes
         x-vorticity is written as result for 79078 nodes
         y-vorticity is written as result for 79078 nodes
         z-vorticity is written as result for 79078 nodes
         q-criterion is written as result for 79078 nodes
         raw-q-criterion is written as result for 79078 nodes
         temperature is written as result for 79078 nodes
         turb-kinetic-energy is written as result for 79078 nodes
         turb-intensity is written as result for 79078 nodes
         turb-diss-rate is written as result for 79078 nodes
         oh is written as result for 79078 nodes
         ch2o is written as result for 79078 nodes
         no is written as result for 79078 nodes
         fmean is written as result for 79078 nodes
         heat-release-rate is written as result for 79078 nodes
         premixc is written as result for 79078 nodes
         damkohler-number is written as result for 79078 nodes
         stretch-fac is written as result for 79078 nodes
         turbulent-flame-speed is written as result for 79078 nodes
Done. 

Closing library "C:\\PROGRA~1\\ANSYS Inc\\v222\\fluent\\fluent22.2.0\\vki\\win64\\devtools4.4.6.dll"... done.




> (cx-gui-do cx-activate-item "Export*Table1*Table2*Table3*List1(Surfaces)")



> (cx-gui-do cx-set-list-selections "Export*Table1*Table2*Table3*List1(Surfaces)" '())



> (cx-gui-do cx-activate-item "Export*PanelButtons*PushButton2(Cancel)")
(cx-gui-do cx-activate-item "Export*PanelButtons*PushButton2(Cancel)")



> (cx-gui-do cx-activate-item "MenuBar*WriteSubMenu*Stop Journal")



> Multicore SMT processors detected. Processor affinity set!

Error: list-remove: null list
Error Object: #f

       Clearing partially read grid.

Reading from WIN-I21RD2LCQ0C:"G:\calculations\1-5nozzle-fullgridandcorexperiment\1nozzle\48\48-0.4\48-0.4-0912.cas.h5" in NODE0 mode ...
  Reading mesh ...
     8736228 cells,     1 cell zone  ...
        8736228 mixed cells,  zone id: 7368
    31516610 faces,     8 face zones ...
         380908 polygonal wall faces,  zone id: 7376
          41176 polygonal pressure-outlet faces,  zone id: 7
            665 polygonal mass-flow-inlet faces,  zone id: 6
            670 polygonal mass-flow-inlet faces,  zone id: 5
            679 polygonal mass-flow-inlet faces,  zone id: 4
            674 polygonal mass-flow-inlet faces,  zone id: 3
            673 polygonal mass-flow-inlet faces,  zone id: 227
       31091165 mixed interior faces,  zone id: 7369
    15185679 nodes,     1 node zone  ...
  Done.


Building...
     mesh
	distributing mesh
		parts...........,
		faces...........,
		nodes...........,
		cells...........,
        bandwidth reduction using Reverse Cuthill-McKee: 805737/9530 = 84.5474
     materials,
     interface,
     domains,
	mixture
     zones,
	zone48-0.25:48-0.25---1
	outlet
	interior-62
	inlet-middle
	inlet-1
	inlet-2
	inlet-3
	inlet-4
	zone48-0.25:48-0.25---1:60
     parallel,

Reading "G:\calculations\1-5nozzle-fullgridandcorexperiment\1nozzle\48\48-0.4\48-0.4.pdf"...

	Version of the file: "fluent2021r2" 
  Read PDF case variables
	Type of the PDF Table: Nonadiabatic Table with FGM Model (Two Streams) 
  Read species data
  Read stream inlets
  Read PDF tables
    - mixture fraction table
    - temperature table
    - density table
    - specific heat table
      reading species            1 of  20  2 of  20  3 of  20  4 of  20  5 of  20  6 of  20  7 of  20  8 of  20  9 of  20 10 of  20 11 of  20 12 of  20 13 of  20 14 of  20 15 of  20 16 of  20 17 of  20 18 of  20 19 of  20 20 of  20
    - species mole fraction table

  Read intermediate data
Read 20 species (sectioned c, 3D prepdf)
PDF file successfully read.

Done.

Reading from WIN-I21RD2LCQ0C:"G:\calculations\1-5nozzle-fullgridandcorexperiment\1nozzle\48\48-0.4\48-0.4-0912.dat.h5" in NODE0 mode ...


  Reading results.
Parallel variables...
Done.

Reading journal file G:\calculations\1-5nozzle-fullgridandcorexperiment\postprocessing\1nozzle\48\48-0.4\dataexport_new.txt...

> /file/set-tui-version "22.2"

> (cx-gui-do cx-activate-item "MenuBar*ExportSubMenu*Solution Data...")



> (cx-gui-do cx-set-list-selections "Export*Table1*Table1*DropDownList2(File Type)" '( 13))



> (cx-gui-do cx-activate-item "Export*Table1*Table1*DropDownList2(File Type)")



> (cx-gui-do cx-set-list-selections "Export*Table1*Table2*Table4*List1(Quantities)" '( 0 8 9 10 11 25 26 27 28 29 31 32 34 50 51 52 69 75 76 142 146 149 151 152 153))



> (cx-gui-do cx-activate-item "Export*Table1*Table2*Table4*List1(Quantities)")



> (cx-gui-do cx-set-list-selections "Export*Table1*Table2*Table3*List1(Surfaces)" '( 0))



> (cx-gui-do cx-activate-item "Export*Table1*Table2*Table3*List1(Surfaces)")



> (cx-gui-do cx-activate-item "Export*PanelButtons*PushButton1(OK)")
(cx-gui-do cx-activate-item "Export*PanelButtons*PushButton1(OK)")



> (cx-gui-do cx-set-file-dialog-entries "Select File" '( "G:\calculations\1-5nozzle-fullgridandcorexperiment\postprocessing\1nozzle\48\48-0.4\central-1.plt") "Tecplot Files ()")

Opening library "C:\\PROGRA~1\\ANSYS Inc\\v222\\fluent\\fluent22.2.0\\vki\\win64\\devtools4.4.6.dll"... done.


Writing "G:\\calculations\\1-5nozzle-fullgridandcorexperiment\\postprocessing\\1nozzle\\48\\48-0.4\\central-1.plt"
   72519 nodes written.
   59734 elements written.
       1 node sets written.
         pressure is written as result for 72519 nodes
         velocity-magnitude is written as result for 72519 nodes
         x-velocity is written as result for 72519 nodes
         y-velocity is written as result for 72519 nodes
         z-velocity is written as result for 72519 nodes
         vorticity-mag is written as result for 72519 nodes
         helicity is written as result for 72519 nodes
         x-vorticity is written as result for 72519 nodes
         y-vorticity is written as result for 72519 nodes
         z-vorticity is written as result for 72519 nodes
         q-criterion is written as result for 72519 nodes
         raw-q-criterion is written as result for 72519 nodes
         temperature is written as result for 72519 nodes
         turb-kinetic-energy is written as result for 72519 nodes
         turb-intensity is written as result for 72519 nodes
         turb-diss-rate is written as result for 72519 nodes
         oh is written as result for 72519 nodes
         ch2o is written as result for 72519 nodes
         no is written as result for 72519 nodes
         fmean is written as result for 72519 nodes
         heat-release-rate is written as result for 72519 nodes
         premixc is written as result for 72519 nodes
         damkohler-number is written as result for 72519 nodes
         stretch-fac is written as result for 72519 nodes
         turbulent-flame-speed is written as result for 72519 nodes
Done. 

Closing library "C:\\PROGRA~1\\ANSYS Inc\\v222\\fluent\\fluent22.2.0\\vki\\win64\\devtools4.4.6.dll"... done.




> (cx-gui-do cx-activate-item "Export*Table1*Table2*Table3*List1(Surfaces)")



> (cx-gui-do cx-set-list-selections "Export*Table1*Table2*Table3*List1(Surfaces)" '())



> (cx-gui-do cx-activate-item "Export*Table1*Table2*Table3*List1(Surfaces)")



> (cx-gui-do cx-set-list-selections "Export*Table1*Table2*Table3*List1(Surfaces)" '( 1))



> (cx-gui-do cx-activate-item "Export*Table1*Table2*Table3*List1(Surfaces)")



> (cx-gui-do cx-activate-item "Export*PanelButtons*PushButton1(OK)")
(cx-gui-do cx-activate-item "Export*PanelButtons*PushButton1(OK)")



> (cx-gui-do cx-set-file-dialog-entries "Select File" '( "G:\calculations\1-5nozzle-fullgridandcorexperiment\postprocessing\1nozzle\48\48-0.4\central-2.plt") "Tecplot Files ()")

Opening library "C:\\PROGRA~1\\ANSYS Inc\\v222\\fluent\\fluent22.2.0\\vki\\win64\\devtools4.4.6.dll"... done.


Writing "G:\\calculations\\1-5nozzle-fullgridandcorexperiment\\postprocessing\\1nozzle\\48\\48-0.4\\central-2.plt"
   73185 nodes written.
   60104 elements written.
       1 node sets written.
         pressure is written as result for 73185 nodes
         velocity-magnitude is written as result for 73185 nodes
         x-velocity is written as result for 73185 nodes
         y-velocity is written as result for 73185 nodes
         z-velocity is written as result for 73185 nodes
         vorticity-mag is written as result for 73185 nodes
         helicity is written as result for 73185 nodes
         x-vorticity is written as result for 73185 nodes
         y-vorticity is written as result for 73185 nodes
         z-vorticity is written as result for 73185 nodes
         q-criterion is written as result for 73185 nodes
         raw-q-criterion is written as result for 73185 nodes
         temperature is written as result for 73185 nodes
         turb-kinetic-energy is written as result for 73185 nodes
         turb-intensity is written as result for 73185 nodes
         turb-diss-rate is written as result for 73185 nodes
         oh is written as result for 73185 nodes
         ch2o is written as result for 73185 nodes
         no is written as result for 73185 nodes
         fmean is written as result for 73185 nodes
         heat-release-rate is written as result for 73185 nodes
         premixc is written as result for 73185 nodes
         damkohler-number is written as result for 73185 nodes
         stretch-fac is written as result for 73185 nodes
         turbulent-flame-speed is written as result for 73185 nodes
Done. 

Closing library "C:\\PROGRA~1\\ANSYS Inc\\v222\\fluent\\fluent22.2.0\\vki\\win64\\devtools4.4.6.dll"... done.




> (cx-gui-do cx-set-list-selections "Export*Table1*Table2*Table3*List1(Surfaces)" '( 6))



> (cx-gui-do cx-activate-item "Export*Table1*Table2*Table3*List1(Surfaces)")



> (cx-gui-do cx-activate-item "Export*PanelButtons*PushButton1(OK)")
(cx-gui-do cx-activate-item "Export*PanelButtons*PushButton1(OK)")



> (cx-gui-do cx-set-file-dialog-entries "Select File" '( "G:\calculations\1-5nozzle-fullgridandcorexperiment\postprocessing\1nozzle\48\48-0.4\45-0912.plt") "Tecplot Files ()")

Opening library "C:\\PROGRA~1\\ANSYS Inc\\v222\\fluent\\fluent22.2.0\\vki\\win64\\devtools4.4.6.dll"... done.


Writing "G:\\calculations\\1-5nozzle-fullgridandcorexperiment\\postprocessing\\1nozzle\\48\\48-0.4\\45-0912.plt"
   79078 nodes written.
   69190 elements written.
       1 node sets written.
         pressure is written as result for 79078 nodes
         velocity-magnitude is written as result for 79078 nodes
         x-velocity is written as result for 79078 nodes
         y-velocity is written as result for 79078 nodes
         z-velocity is written as result for 79078 nodes
         vorticity-mag is written as result for 79078 nodes
         helicity is written as result for 79078 nodes
         x-vorticity is written as result for 79078 nodes
         y-vorticity is written as result for 79078 nodes
         z-vorticity is written as result for 79078 nodes
         q-criterion is written as result for 79078 nodes
         raw-q-criterion is written as result for 79078 nodes
         temperature is written as result for 79078 nodes
         turb-kinetic-energy is written as result for 79078 nodes
         turb-intensity is written as result for 79078 nodes
         turb-diss-rate is written as result for 79078 nodes
         oh is written as result for 79078 nodes
         ch2o is written as result for 79078 nodes
         no is written as result for 79078 nodes
         fmean is written as result for 79078 nodes
         heat-release-rate is written as result for 79078 nodes
         premixc is written as result for 79078 nodes
         damkohler-number is written as result for 79078 nodes
         stretch-fac is written as result for 79078 nodes
         turbulent-flame-speed is written as result for 79078 nodes
Done. 

Closing library "C:\\PROGRA~1\\ANSYS Inc\\v222\\fluent\\fluent22.2.0\\vki\\win64\\devtools4.4.6.dll"... done.




> (cx-gui-do cx-activate-item "Export*Table1*Table2*Table3*List1(Surfaces)")



> (cx-gui-do cx-set-list-selections "Export*Table1*Table2*Table3*List1(Surfaces)" '())



> (cx-gui-do cx-activate-item "Export*PanelButtons*PushButton2(Cancel)")
(cx-gui-do cx-activate-item "Export*PanelButtons*PushButton2(Cancel)")



> (cx-gui-do cx-activate-item "MenuBar*WriteSubMenu*Stop Journal")



> Multicore SMT processors detected. Processor affinity set!

Error: list-remove: null list
Error Object: #f

       Clearing partially read grid.

Reading from WIN-I21RD2LCQ0C:"G:\calculations\1-5nozzle-fullgridandcorexperiment\1nozzle\48\48-0.35\48-0.35-0912.cas.h5" in NODE0 mode ...
  Reading mesh ...
     8736228 cells,     1 cell zone  ...
        8736228 mixed cells,  zone id: 7368
    31516610 faces,     8 face zones ...
         380908 polygonal wall faces,  zone id: 7376
          41176 polygonal pressure-outlet faces,  zone id: 7
            665 polygonal mass-flow-inlet faces,  zone id: 6
            670 polygonal mass-flow-inlet faces,  zone id: 5
            679 polygonal mass-flow-inlet faces,  zone id: 4
            674 polygonal mass-flow-inlet faces,  zone id: 3
            673 polygonal mass-flow-inlet faces,  zone id: 227
       31091165 mixed interior faces,  zone id: 7369
    15185679 nodes,     1 node zone  ...
  Done.


Building...
     mesh
	distributing mesh
		parts...........,
		faces...........,
		nodes...........,
		cells...........,
        bandwidth reduction using Reverse Cuthill-McKee: 805737/9530 = 84.5474
     materials,
     interface,
     domains,
	mixture
     zones,
	zone48-0.25:48-0.25---1
	outlet
[...]
    - species mole fraction table

  Read intermediate data
Read 20 species (sectioned c, 3D prepdf)
PDF file successfully read.

Done.

Reading from WIN-I21RD2LCQ0C:"G:\calculations\1-5nozzle-fullgridandcorexperiment\5nozzle\48\48-0.3\48-0.3-0912.dat.h5" in NODE0 mode ...


  Reading results.
Parallel variables...
Done.

Reading journal file G:\calculations\1-5nozzle-fullgridandcorexperiment\postprocessing\5nozzle\48\48-0.3\dataexport_new.txt...

> /file/set-tui-version "22.2"

> (cx-gui-do cx-activate-item "MenuBar*ExportSubMenu*Solution Data...")



> (cx-gui-do cx-set-list-selections "Export*Table1*Table1*DropDownList2(File Type)" '( 13))



> (cx-gui-do cx-activate-item "Export*Table1*Table1*DropDownList2(File Type)")



> (cx-gui-do cx-set-list-selections "Export*Table1*Table2*Table4*List1(Quantities)" '( 0 8 9 10 11 25 26 27 28 29 31 32 34 50 51 52 69 75 76 142 146 149 151 152 153))



> (cx-gui-do cx-activate-item "Export*Table1*Table2*Table4*List1(Quantities)")



> (cx-gui-do cx-set-list-selections "Export*Table1*Table2*Table3*List1(Surfaces)" '( 0))



> (cx-gui-do cx-activate-item "Export*Table1*Table2*Table3*List1(Surfaces)")



> (cx-gui-do cx-activate-item "Export*PanelButtons*PushButton1(OK)")
(cx-gui-do cx-activate-item "Export*PanelButtons*PushButton1(OK)")



> (cx-gui-do cx-set-file-dialog-entries "Select File" '( "G:\calculations\1-5nozzle-fullgridandcorexperiment\postprocessing\5nozzle\48\48-0.3\central-1.plt") "Tecplot Files ()")

Opening library "C:\\PROGRA~1\\ANSYS Inc\\v222\\fluent\\fluent22.2.0\\vki\\win64\\devtools4.4.6.dll"... done.


Writing "G:\\calculations\\1-5nozzle-fullgridandcorexperiment\\postprocessing\\5nozzle\\48\\48-0.3\\central-1.plt"
   72532 nodes written.
   59725 elements written.
       1 node sets written.
         pressure is written as result for 72532 nodes
         velocity-magnitude is written as result for 72532 nodes
         x-velocity is written as result for 72532 nodes
         y-velocity is written as result for 72532 nodes
         z-velocity is written as result for 72532 nodes
         vorticity-mag is written as result for 72532 nodes
         helicity is written as result for 72532 nodes
         x-vorticity is written as result for 72532 nodes
         y-vorticity is written as result for 72532 nodes
         z-vorticity is written as result for 72532 nodes
         q-criterion is written as result for 72532 nodes
         raw-q-criterion is written as result for 72532 nodes
         temperature is written as result for 72532 nodes
         turb-kinetic-energy is written as result for 72532 nodes
         turb-intensity is written as result for 72532 nodes
         turb-diss-rate is written as result for 72532 nodes
         oh is written as result for 72532 nodes
         ch2o is written as result for 72532 nodes
         no is written as result for 72532 nodes
         fmean is written as result for 72532 nodes
         heat-release-rate is written as result for 72532 nodes
         premixc is written as result for 72532 nodes
         damkohler-number is written as result for 72532 nodes
         stretch-fac is written as result for 72532 nodes
         turbulent-flame-speed is written as result for 72532 nodes
Done. 

Closing library "C:\\PROGRA~1\\ANSYS Inc\\v222\\fluent\\fluent22.2.0\\vki\\win64\\devtools4.4.6.dll"... done.




> (cx-gui-do cx-activate-item "Export*Table1*Table2*Table3*List1(Surfaces)")



> (cx-gui-do cx-set-list-selections "Export*Table1*Table2*Table3*List1(Surfaces)" '())



> (cx-gui-do cx-activate-item "Export*Table1*Table2*Table3*List1(Surfaces)")



> (cx-gui-do cx-set-list-selections "Export*Table1*Table2*Table3*List1(Surfaces)" '( 1))



> (cx-gui-do cx-activate-item "Export*Table1*Table2*Table3*List1(Surfaces)")



> (cx-gui-do cx-activate-item "Export*PanelButtons*PushButton1(OK)")
(cx-gui-do cx-activate-item "Export*PanelButtons*PushButton1(OK)")



> (cx-gui-do cx-set-file-dialog-entries "Select File" '( "G:\calculations\1-5nozzle-fullgridandcorexperiment\postprocessing\5nozzle\48\48-0.3\central-2.plt") "Tecplot Files ()")

Opening library "C:\\PROGRA~1\\ANSYS Inc\\v222\\fluent\\fluent22.2.0\\vki\\win64\\devtools4.4.6.dll"... done.


Writing "G:\\calculations\\1-5nozzle-fullgridandcorexperiment\\postprocessing\\5nozzle\\48\\48-0.3\\central-2.plt"
   73204 nodes written.
   60096 elements written.
       1 node sets written.
         pressure is written as result for 73204 nodes
         velocity-magnitude is written as result for 73204 nodes
         x-velocity is written as result for 73204 nodes
         y-velocity is written as result for 73204 nodes
         z-velocity is written as result for 73204 nodes
         vorticity-mag is written as result for 73204 nodes
         helicity is written as result for 73204 nodes
         x-vorticity is written as result for 73204 nodes
         y-vorticity is written as result for 73204 nodes
         z-vorticity is written as result for 73204 nodes
         q-criterion is written as result for 73204 nodes
         raw-q-criterion is written as result for 73204 nodes
         temperature is written as result for 73204 nodes
         turb-kinetic-energy is written as result for 73204 nodes
         turb-intensity is written as result for 73204 nodes
         turb-diss-rate is written as result for 73204 nodes
         oh is written as result for 73204 nodes
         ch2o is written as result for 73204 nodes
         no is written as result for 73204 nodes
         fmean is written as result for 73204 nodes
         heat-release-rate is written as result for 73204 nodes
         premixc is written as result for 73204 nodes
         damkohler-number is written as result for 73204 nodes
         stretch-fac is written as result for 73204 nodes
         turbulent-flame-speed is written as result for 73204 nodes
Done. 

Closing library "C:\\PROGRA~1\\ANSYS Inc\\v222\\fluent\\fluent22.2.0\\vki\\win64\\devtools4.4.6.dll"... done.




> (cx-gui-do cx-set-list-selections "Export*Table1*Table2*Table3*List1(Surfaces)" '( 6))



> (cx-gui-do cx-activate-item "Export*Table1*Table2*Table3*List1(Surfaces)")



> (cx-gui-do cx-activate-item "Export*PanelButtons*PushButton1(OK)")
(cx-gui-do cx-activate-item "Export*PanelButtons*PushButton1(OK)")



> (cx-gui-do cx-set-file-dialog-entries "Select File" '( "G:\calculations\1-5nozzle-fullgridandcorexperiment\postprocessing\5nozzle\48\48-0.3\45-0912.plt") "Tecplot Files ()")

Opening library "C:\\PROGRA~1\\ANSYS Inc\\v222\\fluent\\fluent22.2.0\\vki\\win64\\devtools4.4.6.dll"... done.


Writing "G:\\calculations\\1-5nozzle-fullgridandcorexperiment\\postprocessing\\5nozzle\\48\\48-0.3\\45-0912.plt"
   79084 nodes written.
   69182 elements written.
       1 node sets written.
         pressure is written as result for 79084 nodes
         velocity-magnitude is written as result for 79084 nodes
         x-velocity is written as result for 79084 nodes
         y-velocity is written as result for 79084 nodes
         z-velocity is written as result for 79084 nodes
         vorticity-mag is written as result for 79084 nodes
         helicity is written as result for 79084 nodes
         x-vorticity is written as result for 79084 nodes
         y-vorticity is written as result for 79084 nodes
         z-vorticity is written as result for 79084 nodes
         q-criterion is written as result for 79084 nodes
         raw-q-criterion is written as result for 79084 nodes
         temperature is written as result for 79084 nodes
         turb-kinetic-energy is written as result for 79084 nodes
         turb-intensity is written as result for 79084 nodes
         turb-diss-rate is written as result for 79084 nodes
         oh is written as result for 79084 nodes
         ch2o is written as result for 79084 nodes
         no is written as result for 79084 nodes
         fmean is written as result for 79084 nodes
         heat-release-rate is written as result for 79084 nodes
         premixc is written as result for 79084 nodes
         damkohler-number is written as result for 79084 nodes
         stretch-fac is written as result for 79084 nodes
         turbulent-flame-speed is written as result for 79084 nodes
Done. 

Closing library "C:\\PROGRA~1\\ANSYS Inc\\v222\\fluent\\fluent22.2.0\\vki\\win64\\devtools4.4.6.dll"... done.




> (cx-gui-do cx-activate-item "Export*Table1*Table2*Table3*List1(Surfaces)")



> (cx-gui-do cx-set-list-selections "Export*Table1*Table2*Table3*List1(Surfaces)" '())



> (cx-gui-do cx-activate-item "Export*PanelButtons*PushButton2(Cancel)")
(cx-gui-do cx-activate-item "Export*PanelButtons*PushButton2(Cancel)")



> (cx-gui-do cx-activate-item "MenuBar*WriteSubMenu*Stop Journal")



> Multicore SMT processors detected. Processor affinity set!

Error: list-remove: null list
Error Object: #f

       Clearing partially read grid.

Reading from WIN-I21RD2LCQ0C:"G:\calculations\1-5nozzle-fullgridandcorexperiment\5nozzle\48\48-0.25\48-0.25-0912.cas.h5" in NODE0 mode ...
  Reading mesh ...
     8736228 cells,     1 cell zone  ...
        8736228 mixed cells,  zone id: 7368
    31516610 faces,     8 face zones ...
         380908 polygonal wall faces,  zone id: 7376
          41176 polygonal pressure-outlet faces,  zone id: 7
            665 polygonal mass-flow-inlet faces,  zone id: 6
            670 polygonal mass-flow-inlet faces,  zone id: 5
            679 polygonal mass-flow-inlet faces,  zone id: 4
            674 polygonal mass-flow-inlet faces,  zone id: 3
            673 polygonal mass-flow-inlet faces,  zone id: 227
       31091165 mixed interior faces,  zone id: 7369
    15185679 nodes,     1 node zone  ...
  Done.


Building...
     mesh
	distributing mesh
		parts...........,
		faces...........,
		nodes...........,
		cells...........,
        bandwidth reduction using Reverse Cuthill-McKee: 805737/9530 = 84.5474
     materials,
     interface,
     domains,
	mixture
     zones,
	zone48-0.25:48-0.25---1
	outlet
	interior-62
	inlet-middle
	inlet-1
	inlet-2
	inlet-3
	inlet-4
	zone48-0.25:48-0.25---1:60
     parallel,

Reading "G:\calculations\1-5nozzle-fullgridandcorexperiment\5nozzle\48\48-0.25\48-0.25.pdf"...

	Version of the file: "fluent2021r2" 
  Read PDF case variables
	Type of the PDF Table: Nonadiabatic Table with FGM Model (Two Streams) 
  Read species data
  Read stream inlets
  Read PDF tables
    - mixture fraction table
    - temperature table
    - density table
    - specific heat table
      reading species            1 of  20  2 of  20  3 of  20  4 of  20  5 of  20  6 of  20  7 of  20  8 of  20  9 of  20 10 of  20 11 of  20 12 of  20 13 of  20 14 of  20 15 of  20 16 of  20 17 of  20 18 of  20 19 of  20 20 of  20
    - species mole fraction table

  Read intermediate data
Read 20 species (sectioned c, 3D prepdf)
PDF file successfully read.

Done.

Reading from WIN-I21RD2LCQ0C:"G:\calculations\1-5nozzle-fullgridandcorexperiment\5nozzle\48\48-0.25\48-0.25-0912.dat.h5" in NODE0 mode ...


  Reading results.
Parallel variables...
Done.

Reading journal file G:\calculations\1-5nozzle-fullgridandcorexperiment\postprocessing\5nozzle\48\48-0.25\dataexport_new.txt...

> /file/set-tui-version "22.2"

> (cx-gui-do cx-activate-item "MenuBar*ExportSubMenu*Solution Data...")



> (cx-gui-do cx-set-list-selections "Export*Table1*Table1*DropDownList2(File Type)" '( 13))



> (cx-gui-do cx-activate-item "Export*Table1*Table1*DropDownList2(File Type)")



> (cx-gui-do cx-set-list-selections "Export*Table1*Table2*Table4*List1(Quantities)" '( 0 8 9 10 11 25 26 27 28 29 31 32 34 50 51 52 69 75 76 142 146 149 151 152 153))



> (cx-gui-do cx-activate-item "Export*Table1*Table2*Table4*List1(Quantities)")



> (cx-gui-do cx-set-list-selections "Export*Table1*Table2*Table3*List1(Surfaces)" '( 0))



> (cx-gui-do cx-activate-item "Export*Table1*Table2*Table3*List1(Surfaces)")



> (cx-gui-do cx-activate-item "Export*PanelButtons*PushButton1(OK)")
(cx-gui-do cx-activate-item "Export*PanelButtons*PushButton1(OK)")



> (cx-gui-do cx-set-file-dialog-entries "Select File" '( "G:\calculations\1-5nozzle-fullgridandcorexperiment\postprocessing\5nozzle\48\48-0.25\central-1.plt") "Tecplot Files ()")

Opening library "C:\\PROGRA~1\\ANSYS Inc\\v222\\fluent\\fluent22.2.0\\vki\\win64\\devtools4.4.6.dll"... done.


Writing "G:\\calculations\\1-5nozzle-fullgridandcorexperiment\\postprocessing\\5nozzle\\48\\48-0.25\\central-1.plt"
   72550 nodes written.
   59720 elements written.
       1 node sets written.
         pressure is written as result for 72550 nodes
         velocity-magnitude is written as result for 72550 nodes
         x-velocity is written as result for 72550 nodes
         y-velocity is written as result for 72550 nodes
         z-velocity is written as result for 72550 nodes
         vorticity-mag is written as result for 72550 nodes
         helicity is written as result for 72550 nodes
         x-vorticity is written as result for 72550 nodes
         y-vorticity is written as result for 72550 nodes
         z-vorticity is written as result for 72550 nodes
         q-criterion is written as result for 72550 nodes
         raw-q-criterion is written as result for 72550 nodes
         temperature is written as result for 72550 nodes
         turb-kinetic-energy is written as result for 72550 nodes
         turb-intensity is written as result for 72550 nodes
         turb-diss-rate is written as result for 72550 nodes
         oh is written as result for 72550 nodes
         ch2o is written as result for 72550 nodes
         no is written as result for 72550 nodes
         fmean is written as result for 72550 nodes
         heat-release-rate is written as result for 72550 nodes
         premixc is written as result for 72550 nodes
         damkohler-number is written as result for 72550 nodes
         stretch-fac is written as result for 72550 nodes
         turbulent-flame-speed is written as result for 72550 nodes
Done. 

Closing library "C:\\PROGRA~1\\ANSYS Inc\\v222\\fluent\\fluent22.2.0\\vki\\win64\\devtools4.4.6.dll"... done.




> (cx-gui-do cx-activate-item "Export*Table1*Table2*Table3*List1(Surfaces)")



> (cx-gui-do cx-set-list-selections "Export*Table1*Table2*Table3*List1(Surfaces)" '())



> (cx-gui-do cx-activate-item "Export*Table1*Table2*Table3*List1(Surfaces)")



> (cx-gui-do cx-set-list-selections "Export*Table1*Table2*Table3*List1(Surfaces)" '( 1))



> (cx-gui-do cx-activate-item "Export*Table1*Table2*Table3*List1(Surfaces)")



> (cx-gui-do cx-activate-item "Export*PanelButtons*PushButton1(OK)")
(cx-gui-do cx-activate-item "Export*PanelButtons*PushButton1(OK)")



> (cx-gui-do cx-set-file-dialog-entries "Select File" '( "G:\calculations\1-5nozzle-fullgridandcorexperiment\postprocessing\5nozzle\48\48-0.25\central-2.plt") "Tecplot Files ()")

Opening library "C:\\PROGRA~1\\ANSYS Inc\\v222\\fluent\\fluent22.2.0\\vki\\win64\\devtools4.4.6.dll"... done.


Writing "G:\\calculations\\1-5nozzle-fullgridandcorexperiment\\postprocessing\\5nozzle\\48\\48-0.25\\central-2.plt"
   73220 nodes written.
   60094 elements written.
       1 node sets written.
         pressure is written as result for 73220 nodes
         velocity-magnitude is written as result for 73220 nodes
         x-velocity is written as result for 73220 nodes
         y-velocity is written as result for 73220 nodes
         z-velocity is written as result for 73220 nodes
         vorticity-mag is written as result for 73220 nodes
         helicity is written as result for 73220 nodes
         x-vorticity is written as result for 73220 nodes
         y-vorticity is written as result for 73220 nodes
         z-vorticity is written as result for 73220 nodes
         q-criterion is written as result for 73220 nodes
         raw-q-criterion is written as result for 73220 nodes
         temperature is written as result for 73220 nodes
         turb-kinetic-energy is written as result for 73220 nodes
         turb-intensity is written as result for 73220 nodes
         turb-diss-rate is written as result for 73220 nodes
         oh is written as result for 73220 nodes
         ch2o is written as result for 73220 nodes
         no is written as result for 73220 nodes
         fmean is written as result for 73220 nodes
         heat-release-rate is written as result for 73220 nodes
         premixc is written as result for 73220 nodes
         damkohler-number is written as result for 73220 nodes
         stretch-fac is written as result for 73220 nodes
         turbulent-flame-speed is written as result for 73220 nodes
Done. 

Closing library "C:\\PROGRA~1\\ANSYS Inc\\v222\\fluent\\fluent22.2.0\\vki\\win64\\devtools4.4.6.dll"... done.




> (cx-gui-do cx-set-list-selections "Export*Table1*Table2*Table3*List1(Surfaces)" '( 6))



> (cx-gui-do cx-activate-item "Export*Table1*Table2*Table3*List1(Surfaces)")



> (cx-gui-do cx-activate-item "Export*PanelButtons*PushButton1(OK)")
(cx-gui-do cx-activate-item "Export*PanelButtons*PushButton1(OK)")



> (cx-gui-do cx-set-file-dialog-entries "Select File" '( "G:\calculations\1-5nozzle-fullgridandcorexperiment\postprocessing\5nozzle\48\48-0.25\45-0912.plt") "Tecplot Files ()")

Opening library "C:\\PROGRA~1\\ANSYS Inc\\v222\\fluent\\fluent22.2.0\\vki\\win64\\devtools4.4.6.dll"... done.


Writing "G:\\calculations\\1-5nozzle-fullgridandcorexperiment\\postprocessing\\5nozzle\\48\\48-0.25\\45-0912.plt"
   79095 nodes written.
   69179 elements written.
       1 node sets written.
         pressure is written as result for 79095 nodes
         velocity-magnitude is written as result for 79095 nodes
         x-velocity is written as result for 79095 nodes
         y-velocity is written as result for 79095 nodes
         z-velocity is written as result for 79095 nodes
         vorticity-mag is written as result for 79095 nodes
         helicity is written as result for 79095 nodes
         x-vorticity is written as result for 79095 nodes
         y-vorticity is written as result for 79095 nodes
         z-vorticity is written as result for 79095 nodes
         q-criterion is written as result for 79095 nodes
         raw-q-criterion is written as result for 79095 nodes
         temperature is written as result for 79095 nodes
         turb-kinetic-energy is written as result for 79095 nodes
         turb-intensity is written as result for 79095 nodes
         turb-diss-rate is written as result for 79095 nodes
         oh is written as result for 79095 nodes
         ch2o is written as result for 79095 nodes
         no is written as result for 79095 nodes
         fmean is written as result for 79095 nodes
         heat-release-rate is written as result for 79095 nodes
         premixc is written as result for 79095 nodes
         damkohler-number is written as result for 79095 nodes
         stretch-fac is written as result for 79095 nodes
         turbulent-flame-speed is written as result for 79095 nodes
Done. 

Closing library "C:\\PROGRA~1\\ANSYS Inc\\v222\\fluent\\fluent22.2.0\\vki\\win64\\devtools4.4.6.dll"... done.




> (cx-gui-do cx-activate-item "Export*Table1*Table2*Table3*List1(Surfaces)")



> (cx-gui-do cx-set-list-selections "Export*Table1*Table2*Table3*List1(Surfaces)" '())



> (cx-gui-do cx-activate-item "Export*PanelButtons*PushButton2(Cancel)")
(cx-gui-do cx-activate-item "Export*PanelButtons*PushButton2(Cancel)")



> (cx-gui-do cx-activate-item "MenuBar*WriteSubMenu*Stop Journal")



> Shutting down Server...
Services Shutdown...Done.
Server Shutdown...Done.
Queue Cleared...Done.
Shutdown Complete.
Auto-Transcript Stop Time:  19:03:40, 20 Sep 2023 中国标准时间 
Total Transcript Time: 4 Hour 52 Minute 49 Second.
