Auto-Transcript Start Time:  13:36:41, 13 Sep 2023 中国标准时间 
Current Directory: "E:\1-python-in-daily-use"
Information: The server has started and is running.

              Welcome to ANSYS Fluent 2022 R2

              Copyright 1987-2022 ANSYS, Inc. All Rights Reserved.
              Unauthorized use, distribution or duplication is prohibited.
              This product is subject to U.S. laws governing export and re-export.
              For full Legal Notice, see documentation.

Build Time: May 27 2022 08:52:58 EDT  Build Id: 10212  
 
Connected License Server List:	1055@localhost
Host spawning Node 0 on machine "WIN-I21RD2LCQ0C" (win64).

-----------------------------------------------------------------------------------
ID    Hostname         Core   O.S.         PID    Vendor                          
-----------------------------------------------------------------------------------
n10   WIN-I21RD2LCQ0C  11/12  Windows-x64  27280  Intel(R) Core(TM) i7-8750H      
n9    WIN-I21RD2LCQ0C  10/12  Windows-x64  30404  Intel(R) Core(TM) i7-8750H      
n8    WIN-I21RD2LCQ0C  9/12   Windows-x64  4684   Intel(R) Core(TM) i7-8750H      
n7    WIN-I21RD2LCQ0C  8/12   Windows-x64  32296  Intel(R) Core(TM) i7-8750H      
n6    WIN-I21RD2LCQ0C  7/12   Windows-x64  31144  Intel(R) Core(TM) i7-8750H      
n5    WIN-I21RD2LCQ0C  6/12   Windows-x64  10600  Intel(R) Core(TM) i7-8750H      
n4    WIN-I21RD2LCQ0C  5/12   Windows-x64  33368  Intel(R) Core(TM) i7-8750H      
n3    WIN-I21RD2LCQ0C  4/12   Windows-x64  32244  Intel(R) Core(TM) i7-8750H      
n2    WIN-I21RD2LCQ0C  3/12   Windows-x64  30640  Intel(R) Core(TM) i7-8750H      
n1    WIN-I21RD2LCQ0C  2/12   Windows-x64  30512  Intel(R) Core(TM) i7-8750H      
n0*   WIN-I21RD2LCQ0C  1/12   Windows-x64  28360  Intel(R) Core(TM) i7-8750H      
host  WIN-I21RD2LCQ0C         Windows-x64  32144  Intel(R) Core(TM) i7-8750H      

MPI Option Selected: intel
Selected system interconnect: default
-----------------------------------------------------------------------------------

Cleanup script file is E:\\1-python-in-daily-use\\cleanup-fluent-WIN-I21RD2LCQ0C-32144.bat

> Fast-loading "C:\PROGRA~1\ANSYS Inc\v222\fluent\fluent22.2.0\\addons\afd\lib\hdfio.bin"
Done.
Multicore SMT processors detected. Processor affinity set!

Reading from WIN-I21RD2LCQ0C:"F:\calculations\1-5nozzle-fullgridandcorexperiment\1nozzle\48\48-1\48-1.cas.h5" in NODE0 mode ...
  Reading mesh ...
Warning: reading 47 partition grid onto 11 compute node machine.
         will auto partition.
     8736228 cells,     1 cell zone  ...
        8736228 mixed cells,  zone id: 7368
    31516610 faces,     8 face zones ...
         380908 polygonal wall faces,  zone id: 7376
          41176 polygonal pressure-outlet faces,  zone id: 7
            665 polygonal mass-flow-inlet faces,  zone id: 6
            670 polygonal mass-flow-inlet faces,  zone id: 5
            679 polygonal mass-flow-inlet faces,  zone id: 4
            674 polygonal mass-flow-inlet faces,  zone id: 3
            673 polygonal mass-flow-inlet faces,  zone id: 227
       31091165 mixed interior faces,  zone id: 7369
    15185679 nodes,     1 node zone  ...
  Done.


Building...
     mesh
	auto partitioning mesh by Metis (fast),
	distributing mesh
		parts...........,
		faces...........,
		nodes...........,
		cells...........,
        bandwidth reduction using Reverse Cuthill-McKee: 805737/9530 = 84.5474
     materials,
     interface,
     domains,
	mixture
     zones,
	zone48-0.25:48-0.25---1
	outlet
	interior-62
	inlet-middle
	inlet-1
	inlet-2
	inlet-3
	inlet-4
	zone48-0.25:48-0.25---1:60
     parallel,

Reading "F:\calculations\1-5nozzle-fullgridandcorexperiment\1nozzle\48\48-1\0.5.pdf"...

	Version of the file: "fluent18.0" 
  Read PDF case variables
	Type of the PDF Table: Nonadiabatic Table with FGM Model (Two Streams) 
  Read species data
  Read stream inlets
  Read PDF tables
    - mixture fraction table
    - temperature table
    - density table
    - specific heat table
      reading species            1 of  20  2 of  20  3 of  20  4 of  20  5 of  20  6 of  20  7 of  20  8 of  20  9 of  20 10 of  20 11 of  20 12 of  20 13 of  20 14 of  20 15 of  20 16 of  20 17 of  20 18 of  20 19 of  20 20 of  20
    - species mole fraction table

  Read intermediate data
Read 20 species (sectioned c, 3D prepdf)
PDF file successfully read.

Material no:
  Changing method of "Viscosity" to "constant" -- data required.

Done.

Reading from WIN-I21RD2LCQ0C:"F:\calculations\1-5nozzle-fullgridandcorexperiment\1nozzle\48\48-1\48-1.dat.h5" in NODE0 mode ...


  Reading results.
Parallel variables...

 turbulent viscosity limited to viscosity ratio of 1.000000e+05 in 202904 cells 
Done.

Reading journal file F:\calculations\1-5nozzle-fullgridandcorexperiment\postprocessing\1nozzle\48\48-1\48-145plane.txt...

> /file/set-tui-version "22.2"

> (cx-gui-do cx-activate-item "Ribbon*Frame1*Frame2(Domain)*Table1*Table3(Surface)*PushButton1(Create)")



> (cx-gui-do cx-activate-item "MenuBar*PopupMenuCreate*Plane...")



> (cx-gui-do cx-set-list-selections "Plane Surface*Table1*Table2(Method)*DropDownList1" '( 4))



> (cx-gui-do cx-activate-item "Plane Surface*Table1*Table2(Method)*DropDownList1")



> (cx-gui-do cx-set-text-entry "Plane Surface*Table1*Table1*TextEntry1(New Surface Name)" "far")



> (cx-gui-do cx-set-real-entry-list "Plane Surface*Table1*Frame4*Table1*Table1(Point 1)*RealEntry1(X)" '( 0.192))



> (cx-gui-do cx-activate-item "Plane Surface*Table1*Frame4*Table1*Table1(Point 1)*RealEntry1(X)")



> (cx-gui-do cx-set-real-entry-list "Plane Surface*Table1*Frame4*Table1*Table1(Point 1)*RealEntry2(Y)" '( 0))



> (cx-gui-do cx-activate-item "Plane Surface*Table1*Frame4*Table1*Table1(Point 1)*RealEntry2(Y)")



> (cx-gui-do cx-set-real-entry-list "Plane Surface*Table1*Frame4*Table1*Table1(Point 1)*RealEntry3(Z)" '( -0.384))



> (cx-gui-do cx-activate-item "Plane Surface*Table1*Frame4*Table1*Table1(Point 1)*RealEntry3(Z)")



> (cx-gui-do cx-set-real-entry-list "Plane Surface*Table1*Frame4*Table1*Table2(Point 2)*RealEntry1(X)" '( 0))



> (cx-gui-do cx-activate-item "Plane Surface*Table1*Frame4*Table1*Table2(Point 2)*RealEntry1(X)")



> (cx-gui-do cx-set-real-entry-list "Plane Surface*Table1*Frame4*Table1*Table2(Point 2)*RealEntry2(Y)" '( -0.192))



> (cx-gui-do cx-activate-item "Plane Surface*Table1*Frame4*Table1*Table2(Point 2)*RealEntry2(Y)")



> (cx-gui-do cx-set-real-entry-list "Plane Surface*Table1*Frame4*Table1*Table2(Point 2)*RealEntry3(Z)" '( -0.384))



> (cx-gui-do cx-activate-item "Plane Surface*Table1*Frame4*Table1*Table2(Point 2)*RealEntry3(Z)")



> (cx-gui-do cx-set-real-entry-list "Plane Surface*Table1*Frame4*Table1*Table3(Point 3)*RealEntry1(X)" '( 0.192))



> (cx-gui-do cx-activate-item "Plane Surface*Table1*Frame4*Table1*Table3(Point 3)*RealEntry1(X)")



> (cx-gui-do cx-set-real-entry-list "Plane Surface*Table1*Frame4*Table1*Table3(Point 3)*RealEntry2(Y)" '( 0))



> (cx-gui-do cx-activate-item "Plane Surface*Table1*Frame4*Table1*Table3(Point 3)*RealEntry2(Y)")



> (cx-gui-do cx-set-real-entry-list "Plane Surface*Table1*Frame4*Table1*Table3(Point 3)*RealEntry3(Z)" '( -0.008))



> (cx-gui-do cx-activate-item "Plane Surface*Table1*Frame4*Table1*Table3(Point 3)*RealEntry3(Z)")



> (cx-gui-do cx-activate-item "Plane Surface*PanelButtons*PushButton1(OK)")
(cx-gui-do cx-activate-item "Plane Surface*PanelButtons*PushButton1(OK)")



> (cx-gui-do cx-activate-item "Plane Surface*PanelButtons*PushButton2(Cancel)")
(cx-gui-do cx-activate-item "Plane Surface*PanelButtons*PushButton2(Cancel)")



> (cx-gui-do cx-activate-item "MenuBar*WriteSubMenu*Stop Journal")



> 
Reading journal file F:\calculations\1-5nozzle-fullgridandcorexperiment\postprocessing\1nozzle\48\48-1\48-145.txt...

> /file/set-tui-version "22.2"

> (cx-gui-do cx-activate-item "MenuBar*ExportSubMenu*Solution Data...")



> (cx-gui-do cx-set-list-selections "Export*Table1*Table1*DropDownList2(File Type)" '( 13))



> (cx-gui-do cx-activate-item "Export*Table1*Table1*DropDownList2(File Type)")



> (cx-gui-do cx-set-list-selections "Export*Table1*Table2*Table4*List1(Quantities)" '( 0))



> (cx-gui-do cx-activate-item "Export*Table1*Table2*Table4*List1(Quantities)")



> (cx-gui-do cx-set-list-selections "Export*Table1*Table2*Table4*List1(Quantities)" '( 0 8))



> (cx-gui-do cx-activate-item "Export*Table1*Table2*Table4*List1(Quantities)")



> (cx-gui-do cx-set-list-selections "Export*Table1*Table2*Table4*List1(Quantities)" '( 0 8 9))



> (cx-gui-do cx-activate-item "Export*Table1*Table2*Table4*List1(Quantities)")



> (cx-gui-do cx-set-list-selections "Export*Table1*Table2*Table4*List1(Quantities)" '( 0 8 9 10))



> (cx-gui-do cx-activate-item "Export*Table1*Table2*Table4*List1(Quantities)")



> (cx-gui-do cx-set-list-selections "Export*Table1*Table2*Table4*List1(Quantities)" '( 0 8 9 10 11))



> (cx-gui-do cx-activate-item "Export*Table1*Table2*Table4*List1(Quantities)")



> (cx-gui-do cx-set-list-selections "Export*Table1*Table2*Table4*List1(Quantities)" '( 0 8 9 10 11 25))



> (cx-gui-do cx-activate-item "Export*Table1*Table2*Table4*List1(Quantities)")



> (cx-gui-do cx-set-list-selections "Export*Table1*Table2*Table4*List1(Quantities)" '( 0 8 9 10 11 25 26))



> (cx-gui-do cx-activate-item "Export*Table1*Table2*Table4*List1(Quantities)")



> (cx-gui-do cx-set-list-selections "Export*Table1*Table2*Table4*List1(Quantities)" '( 0 8 9 10 11 25 26 27))



> (cx-gui-do cx-activate-item "Export*Table1*Table2*Table4*List1(Quantities)")



> (cx-gui-do cx-set-list-selections "Export*Table1*Table2*Table4*List1(Quantities)" '( 0 8 9 10 11 25 26 27 28))



> (cx-gui-do cx-activate-item "Export*Table1*Table2*Table4*List1(Quantities)")



> (cx-gui-do cx-set-list-selections "Export*Table1*Table2*Table4*List1(Quantities)" '( 0 8 9 10 11 25 26 27 28 29))



> (cx-gui-do cx-activate-item "Export*Table1*Table2*Table4*List1(Quantities)")



> (cx-gui-do cx-set-list-selections "Export*Table1*Table2*Table4*List1(Quantities)" '( 0 8 9 10 11 25 26 27 28 29 31))



> (cx-gui-do cx-activate-item "Export*Table1*Table2*Table4*List1(Quantities)")



> (cx-gui-do cx-set-list-selections "Export*Table1*Table2*Table4*List1(Quantities)" '( 0 8 9 10 11 25 26 27 28 29 31 32))



> (cx-gui-do cx-activate-item "Export*Table1*Table2*Table4*List1(Quantities)")



> (cx-gui-do cx-set-list-selections "Export*Table1*Table2*Table4*List1(Quantities)" '( 0 8 9 10 11 25 26 27 28 29 31 32 34))



> (cx-gui-do cx-activate-item "Export*Table1*Table2*Table4*List1(Quantities)")



> (cx-gui-do cx-set-list-selections "Export*Table1*Table2*Table4*List1(Quantities)" '( 0 8 9 10 11 25 26 27 28 29 31 32 34 50))



> (cx-gui-do cx-activate-item "Export*Table1*Table2*Table4*List1(Quantities)")



> (cx-gui-do cx-set-list-selections "Export*Table1*Table2*Table4*List1(Quantities)" '( 0 8 9 10 11 25 26 27 28 29 31 32 34 50 51))



> (cx-gui-do cx-activate-item "Export*Table1*Table2*Table4*List1(Quantities)")



> (cx-gui-do cx-set-list-selections "Export*Table1*Table2*Table4*List1(Quantities)" '( 0 8 9 10 11 25 26 27 28 29 31 32 34 50 51 52))



> (cx-gui-do cx-activate-item "Export*Table1*Table2*Table4*List1(Quantities)")



> (cx-gui-do cx-set-list-selections "Export*Table1*Table2*Table4*List1(Quantities)" '( 0 8 9 10 11 25 26 27 28 29 31 32 34 50 51 52 69))



> (cx-gui-do cx-activate-item "Export*Table1*Table2*Table4*List1(Quantities)")



> (cx-gui-do cx-set-list-selections "Export*Table1*Table2*Table4*List1(Quantities)" '( 0 8 9 10 11 25 26 27 28 29 31 32 34 50 51 52 69 76))



> (cx-gui-do cx-activate-item "Export*Table1*Table2*Table4*List1(Quantities)")



> (cx-gui-do cx-set-list-selections "Export*Table1*Table2*Table4*List1(Quantities)" '( 0 8 9 10 11 25 26 27 28 29 31 32 34 50 51 52 69 76 142))



> (cx-gui-do cx-activate-item "Export*Table1*Table2*Table4*List1(Quantities)")



> (cx-gui-do cx-set-list-selections "Export*Table1*Table2*Table4*List1(Quantities)" '( 0 8 9 10 11 25 26 27 28 29 31 32 34 50 51 52 69 76 142 146))



> (cx-gui-do cx-activate-item "Export*Table1*Table2*Table4*List1(Quantities)")



> (cx-gui-do cx-set-list-selections "Export*Table1*Table2*Table4*List1(Quantities)" '( 0 8 9 10 11 25 26 27 28 29 31 32 34 50 51 52 69 76 142 146 149))



> (cx-gui-do cx-activate-item "Export*Table1*Table2*Table4*List1(Quantities)")



> (cx-gui-do cx-set-list-selections "Export*Table1*Table2*Table4*List1(Quantities)" '( 0 8 9 10 11 25 26 27 28 29 31 32 34 50 51 52 69 76 142 146 149 151))



> (cx-gui-do cx-activate-item "Export*Table1*Table2*Table4*List1(Quantities)")



> (cx-gui-do cx-set-list-selections "Export*Table1*Table2*Table4*List1(Quantities)" '( 0 8 9 10 11 25 26 27 28 29 31 32 34 50 51 52 69 76 142 146 149 151 152))



> (cx-gui-do cx-activate-item "Export*Table1*Table2*Table4*List1(Quantities)")



> (cx-gui-do cx-set-list-selections "Export*Table1*Table2*Table4*List1(Quantities)" '( 0 8 9 10 11 25 26 27 28 29 31 32 34 50 51 52 69 76 142 146 149 151 152 153))



> (cx-gui-do cx-activate-item "Export*Table1*Table2*Table4*List1(Quantities)")



> (cx-gui-do cx-set-list-selections "Export*Table1*Table2*Table3*List1(Surfaces)" '( 6))



> (cx-gui-do cx-activate-item "Export*Table1*Table2*Table3*List1(Surfaces)")



> (cx-gui-do cx-activate-item "Export*PanelButtons*PushButton1(OK)")
(cx-gui-do cx-activate-item "Export*PanelButtons*PushButton1(OK)")



> (cx-gui-do cx-set-file-dialog-entries "Select File" '( "F:\calculations\1-5nozzle-fullgridandcorexperiment\postprocessing\1nozzle\48\48-1\45.plt") "Tecplot Files ()")

Opening library "C:\\PROGRA~1\\ANSYS Inc\\v222\\fluent\\fluent22.2.0\\vki\\win64\\devtools4.4.6.dll"... done.


Writing "F:\\calculations\\1-5nozzle-fullgridandcorexperiment\\postprocessing\\1nozzle\\48\\48-1\\45.plt"
   79085 nodes written.
   69201 elements written.
       1 node sets written.
         pressure is written as result for 79085 nodes
         velocity-magnitude is written as result for 79085 nodes
         x-velocity is written as result for 79085 nodes
         y-velocity is written as result for 79085 nodes
         z-velocity is written as result for 79085 nodes
         vorticity-mag is written as result for 79085 nodes
         helicity is written as result for 79085 nodes
         x-vorticity is written as result for 79085 nodes
         y-vorticity is written as result for 79085 nodes
         z-vorticity is written as result for 79085 nodes
         q-criterion is written as result for 79085 nodes
         raw-q-criterion is written as result for 79085 nodes
         temperature is written as result for 79085 nodes
         turb-kinetic-energy is written as result for 79085 nodes
         turb-intensity is written as result for 79085 nodes
         turb-diss-rate is written as result for 79085 nodes
         oh is written as result for 79085 nodes
         ch2o is written as result for 79085 nodes
         fmean is written as result for 79085 nodes
         heat-release-rate is written as result for 79085 nodes
         premixc is written as result for 79085 nodes
         damkohler-number is written as result for 79085 nodes
         stretch-fac is written as result for 79085 nodes
         turbulent-flame-speed is written as result for 79085 nodes
Done. 

Closing library "C:\\PROGRA~1\\ANSYS Inc\\v222\\fluent\\fluent22.2.0\\vki\\win64\\devtools4.4.6.dll"... done.




> (cx-gui-do cx-activate-item "Export*Table1*Table2*Table3*List1(Surfaces)")



> (cx-gui-do cx-set-list-selections "Export*Table1*Table2*Table3*List1(Surfaces)" '())



> (cx-gui-do cx-activate-item "Export*PanelButtons*PushButton2(Cancel)")
(cx-gui-do cx-activate-item "Export*PanelButtons*PushButton2(Cancel)")



> (cx-gui-do cx-activate-item "MenuBar*WriteSubMenu*Stop Journal")



> 
Writing to WIN-I21RD2LCQ0C:"F:\calculations\1-5nozzle-fullgridandcorexperiment\1nozzle\48\48-1\48-1.cas.h5" in NODE0 mode and compression level 1 ...
     8736228 cells,     1 zone  ...
    31516610 faces,     8 zones ...
    15185679 nodes,     1 zone  ...
  Done.
Done.

Writing to WIN-I21RD2LCQ0C:"F:\calculations\1-5nozzle-fullgridandcorexperiment\1nozzle\48\48-1\48-1.dat.h5" in NODE0 mode and compression level 1 ...
  Writing results.
Done.

WIN-I21RD2LCQ0C is already loaded (23.0821).                       Process affinity not being set.

Error: list-remove: null list
Error Object: #f

       Clearing partially read grid.

Reading from WIN-I21RD2LCQ0C:"F:\calculations\1-5nozzle-fullgridandcorexperiment\1nozzle\48\48-0.9\48-0.9.cas.h5" in NODE0 mode ...
  Reading mesh ...
Warning: reading 47 partition grid onto 11 compute node machine.
         will auto partition.
     8736228 cells,     1 cell zone  ...
        8736228 mixed cells,  zone id: 7368
    31516610 faces,     8 face zones ...
         380908 polygonal wall faces,  zone id: 7376
          41176 polygonal pressure-outlet faces,  zone id: 7
            665 polygonal mass-flow-inlet faces,  zone id: 6
            670 polygonal mass-flow-inlet faces,  zone id: 5
            679 polygonal mass-flow-inlet faces,  zone id: 4
            674 polygonal mass-flow-inlet faces,  zone id: 3
            673 polygonal mass-flow-inlet faces,  zone id: 227
       31091165 mixed interior faces,  zone id: 7369
    15185679 nodes,     1 node zone  ...
  Done.


Building...
     mesh
	auto partitioning mesh by Metis (fast),
	distributing mesh
		parts...........,
		faces...........,
		nodes...........,
		cells...........,
        bandwidth reduction using Reverse Cuthill-McKee: 805737/9530 = 84.5474
     materials,
     interface,
     domains,
	mixture
     zones,
	zone48-0.25:48-0.25---1
	outlet
	interior-62
	inlet-middle
	inlet-1
	inlet-2
	inlet-3
	inlet-4
	zone48-0.25:48-0.25---1:60
     parallel,

Reading "F:\calculations\1-5nozzle-fullgridandcorexperiment\1nozzle\48\48-0.9\0.5.pdf"...

	Version of the file: "fluent18.0" 
  Read PDF case variables
	Type of the PDF Table: Nonadiabatic Table with FGM Model (Two Streams) 
  Read species data
  Read stream inlets
  Read PDF tables
    - mixture fraction table
    - temperature table
    - density table
    - specific heat table
      reading species            1 of  20  2 of  20  3 of  20  4 of  20  5 of  20  6 of  20  7 of  20  8 of  20  9 of  20 10 of  20 11 of  20 12 of  20 13 of  20 14 of  20 15 of  20 16 of  20 17 of  20 18 of  20 19 of  20 20 of  20
    - species mole fraction table

  Read intermediate data
Read 20 species (sectioned c, 3D prepdf)
PDF file successfully read.

Done.

Reading from WIN-I21RD2LCQ0C:"F:\calculations\1-5nozzle-fullgridandcorexperiment\1nozzle\48\48-0.9\48-0.9.dat.h5" in NODE0 mode ...


  Reading results.
Parallel variables...
Done.

Reading journal file F:\calculations\1-5nozzle-fullgridandcorexperiment\postprocessing\1nozzle\48\48-0.9\48-0.945plane.txt...

> /file/set-tui-version "22.2"

> (cx-gui-do cx-activate-item "Ribbon*Frame1*Frame2(Domain)*Table1*Table3(Surface)*PushButton1(Create)")



> (cx-gui-do cx-activate-item "MenuBar*PopupMenuCreate*Plane...")



> (cx-gui-do cx-set-list-selections "Plane Surface*Table1*Table2(Method)*DropDownList1" '( 4))



> (cx-gui-do cx-activate-item "Plane Surface*Table1*Table2(Method)*DropDownList1")



> (cx-gui-do cx-set-text-entry "Plane Surface*Table1*Table1*TextEntry1(New Surface Name)" "far")



> (cx-gui-do cx-set-real-entry-list "Plane Surface*Table1*Frame4*Table1*Table1(Point 1)*RealEntry1(X)" '( 0.1728))



> (cx-gui-do cx-activate-item "Plane Surface*Table1*Frame4*Table1*Table1(Point 1)*RealEntry1(X)")



> (cx-gui-do cx-set-real-entry-list "Plane Surface*Table1*Frame4*Table1*Table1(Point 1)*RealEntry2(Y)" '( 0))



> (cx-gui-do cx-activate-item "Plane Surface*Table1*Frame4*Table1*Table1(Point 1)*RealEntry2(Y)")



> (cx-gui-do cx-set-real-entry-list "Plane Surface*Table1*Frame4*Table1*Table1(Point 1)*RealEntry3(Z)" '( -0.3456))



> (cx-gui-do cx-activate-item "Plane Surface*Table1*Frame4*Table1*Table1(Point 1)*RealEntry3(Z)")



> (cx-gui-do cx-set-real-entry-list "Plane Surface*Table1*Frame4*Table1*Table2(Point 2)*RealEntry1(X)" '( 0))



> (cx-gui-do cx-activate-item "Plane Surface*Table1*Frame4*Table1*Table2(Point 2)*RealEntry1(X)")



> (cx-gui-do cx-set-real-entry-list "Plane Surface*Table1*Frame4*Table1*Table2(Point 2)*RealEntry2(Y)" '( -0.1728))



> (cx-gui-do cx-activate-item "Plane Surface*Table1*Frame4*Table1*Table2(Point 2)*RealEntry2(Y)")



> (cx-gui-do cx-set-real-entry-list "Plane Surface*Table1*Frame4*Table1*Table2(Point 2)*RealEntry3(Z)" '( -0.3456))



> (cx-gui-do cx-activate-item "Plane Surface*Table1*Frame4*Table1*Table2(Point 2)*RealEntry3(Z)")



> (cx-gui-do cx-set-real-entry-list "Plane Surface*Table1*Frame4*Table1*Table3(Point 3)*RealEntry1(X)" '( 0.1728))



> (cx-gui-do cx-activate-item "Plane Surface*Table1*Frame4*Table1*Table3(Point 3)*RealEntry1(X)")



> (cx-gui-do cx-set-real-entry-list "Plane Surface*Table1*Frame4*Table1*Table3(Point 3)*RealEntry2(Y)" '( 0))



> (cx-gui-do cx-activate-item "Plane Surface*Table1*Frame4*Table1*Table3(Point 3)*RealEntry2(Y)")



> (cx-gui-do cx-set-real-entry-list "Plane Surface*Table1*Frame4*Table1*Table3(Point 3)*RealEntry3(Z)" '( -0.007200000000000001))



> (cx-gui-do cx-activate-item "Plane Surface*Table1*Frame4*Table1*Table3(Point 3)*RealEntry3(Z)")



> (cx-gui-do cx-activate-item "Plane Surface*PanelButtons*PushButton1(OK)")
(cx-gui-do cx-activate-item "Plane Surface*PanelButtons*PushButton1(OK)")



> (cx-gui-do cx-activate-item "Plane Surface*PanelButtons*PushButton2(Cancel)")
(cx-gui-do cx-activate-item "Plane Surface*PanelButtons*PushButton2(Cancel)")



> (cx-gui-do cx-activate-item "MenuBar*WriteSubMenu*Stop Journal")



> 
Reading journal file F:\calculations\1-5nozzle-fullgridandcorexperiment\postprocessing\1nozzle\48\48-0.9\48-0.945.txt...

> /file/set-tui-version "22.2"

> (cx-gui-do cx-activate-item "MenuBar*ExportSubMenu*Solution Data...")



> (cx-gui-do cx-set-list-selections "Export*Table1*Table1*DropDownList2(File Type)" '( 13))



> (cx-gui-do cx-activate-item "Export*Table1*Table1*DropDownList2(File Type)")



> (cx-gui-do cx-set-list-selections "Export*Table1*Table2*Table4*List1(Quantities)" '( 0))



> (cx-gui-do cx-activate-item "Export*Table1*Table2*Table4*List1(Quantities)")



> (cx-gui-do cx-set-list-selections "Export*Table1*Table2*Table4*List1(Quantities)" '( 0 8))



> (cx-gui-do cx-activate-item "Export*Table1*Table2*Table4*List1(Quantities)")



> (cx-gui-do cx-set-list-selections "Export*Table1*Table2*Table4*List1(Quantities)" '( 0 8 9))



> (cx-gui-do cx-activate-item "Export*Table1*Table2*Table4*List1(Quantities)")



> (cx-gui-do cx-set-list-selections "Export*Table1*Table2*Table4*List1(Quantities)" '( 0 8 9 10))



> (cx-gui-do cx-activate-item "Export*Table1*Table2*Table4*List1(Quantities)")



> (cx-gui-do cx-set-list-selections "Export*Table1*Table2*Table4*List1(Quantities)" '( 0 8 9 10 11))



> (cx-gui-do cx-activate-item "Export*Table1*Table2*Table4*List1(Quantities)")



> (cx-gui-do cx-set-list-selections "Export*Table1*Table2*Table4*List1(Quantities)" '( 0 8 9 10 11 25))



> (cx-gui-do cx-activate-item "Export*Table1*Table2*Table4*List1(Quantities)")



> (cx-gui-do cx-set-list-selections "Export*Table1*Table2*Table4*List1(Quantities)" '( 0 8 9 10 11 25 26))



> (cx-gui-do cx-activate-item "Export*Table1*Table2*Table4*List1(Quantities)")



> (cx-gui-do cx-set-list-selections "Export*Table1*Table2*Table4*List1(Quantities)" '( 0 8 9 10 11 25 26 27))



> (cx-gui-do cx-activate-item "Export*Table1*Table2*Table4*List1(Quantities)")



> (cx-gui-do cx-set-list-selections "Export*Table1*Table2*Table4*List1(Quantities)" '( 0 8 9 10 11 25 26 27 28))



> (cx-gui-do cx-activate-item "Export*Table1*Table2*Table4*List1(Quantities)")



> (cx-gui-do cx-set-list-selections "Export*Table1*Table2*Table4*List1(Quantities)" '( 0 8 9 10 11 25 26 27 28 29))



> (cx-gui-do cx-activate-item "Export*Table1*Table2*Table4*List1(Quantities)")



> (cx-gui-do cx-set-list-selections "Export*Table1*Table2*Table4*List1(Quantities)" '( 0 8 9 10 11 25 26 27 28 29 31))



> (cx-gui-do cx-activate-item "Export*Table1*Table2*Table4*List1(Quantities)")



> (cx-gui-do cx-set-list-selections "Export*Table1*Table2*Table4*List1(Quantities)" '( 0 8 9 10 11 25 26 27 28 29 31 32))



> (cx-gui-do cx-activate-item "Export*Table1*Table2*Table4*List1(Quantities)")



> (cx-gui-do cx-set-list-selections "Export*Table1*Table2*Table4*List1(Quantities)" '( 0 8 9 10 11 25 26 27 28 29 31 32 34))



> (cx-gui-do cx-activate-item "Export*Table1*Table2*Table4*List1(Quantities)")



> (cx-gui-do cx-set-list-selections "Export*Table1*Table2*Table4*List1(Quantities)" '( 0 8 9 10 11 25 26 27 28 29 31 32 34 50))



> (cx-gui-do cx-activate-item "Export*Table1*Table2*Table4*List1(Quantities)")



> (cx-gui-do cx-set-list-selections "Export*Table1*Table2*Table4*List1(Quantities)" '( 0 8 9 10 11 25 26 27 28 29 31 32 34 50 51))



> (cx-gui-do cx-activate-item "Export*Table1*Table2*Table4*List1(Quantities)")



> (cx-gui-do cx-set-list-selections "Export*Table1*Table2*Table4*List1(Quantities)" '( 0 8 9 10 11 25 26 27 28 29 31 32 34 50 51 52))



> (cx-gui-do cx-activate-item "Export*Table1*Table2*Table4*List1(Quantities)")



> (cx-gui-do cx-set-list-selections "Export*Table1*Table2*Table4*List1(Quantities)" '( 0 8 9 10 11 25 26 27 28 29 31 32 34 50 51 52 69))



> (cx-gui-do cx-activate-item "Export*Table1*Table2*Table4*List1(Quantities)")



> (cx-gui-do cx-set-list-selections "Export*Table1*Table2*Table4*List1(Quantities)" '( 0 8 9 10 11 25 26 27 28 29 31 32 34 50 51 52 69 76))



> (cx-gui-do cx-activate-item "Export*Table1*Table2*Table4*List1(Quantities)")



> (cx-gui-do cx-set-list-selections "Export*Table1*Table2*Table4*List1(Quantities)" '( 0 8 9 10 11 25 26 27 28 29 31 32 34 50 51 52 69 76 142))



> (cx-gui-do cx-activate-item "Export*Table1*Table2*Table4*List1(Quantities)")



> (cx-gui-do cx-set-list-selections "Export*Table1*Table2*Table4*List1(Quantities)" '( 0 8 9 10 11 25 26 27 28 29 31 32 34 50 51 52 69 76 142 146))



> (cx-gui-do cx-activate-item "Export*Table1*Table2*Table4*List1(Quantities)")



> (cx-gui-do cx-set-list-selections "Export*Table1*Table2*Table4*List1(Quantities)" '( 0 8 9 10 11 25 26 27 28 29 31 32 34 50 51 52 69 76 142 146 149))



> (cx-gui-do cx-activate-item "Export*Table1*Table2*Table4*List1(Quantities)")



> (cx-gui-do cx-set-list-selections "Export*Table1*Table2*Table4*List1(Quantities)" '( 0 8 9 10 11 25 26 27 28 29 31 32 34 50 51 52 69 76 142 146 149 151))



> (cx-gui-do cx-activate-item "Export*Table1*Table2*Table4*List1(Quantities)")



> (cx-gui-do cx-set-list-selections "Export*Table1*Table2*Table4*List1(Quantities)" '( 0 8 9 10 11 25 26 27 28 29 31 32 34 50 51 52 69 76 142 146 149 151 152))



> (cx-gui-do cx-activate-item "Export*Table1*Table2*Table4*List1(Quantities)")



> (cx-gui-do cx-set-list-selections "Export*Table1*Table2*Table4*List1(Quantities)" '( 0 8 9 10 11 25 26 27 28 29 31 32 34 50 51 52 69 76 142 146 149 151 152 153))



> (cx-gui-do cx-activate-item "Export*Table1*Table2*Table4*List1(Quantities)")



> (cx-gui-do cx-set-list-selections "Export*Table1*Table2*Table3*List1(Surfaces)" '( 6))



> (cx-gui-do cx-activate-item "Export*Table1*Table2*Table3*List1(Surfaces)")



> (cx-gui-do cx-activate-item "Export*PanelButtons*PushButton1(OK)")
(cx-gui-do cx-activate-item "Export*PanelButtons*PushButton1(OK)")



> (cx-gui-do cx-set-file-dialog-entries "Select File" '( "F:\calculations\1-5nozzle-fullgridandcorexperiment\postprocessing\1nozzle\48\48-0.9\45.plt") "Tecplot Files ()")

Opening library "C:\\PROGRA~1\\ANSYS Inc\\v222\\fluent\\fluent22.2.0\\vki\\win64\\devtools4.4.6.dll"... done.


Writing "F:\\calculations\\1-5nozzle-fullgridandcorexperiment\\postprocessing\\1nozzle\\48\\48-0.9\\45.plt"
   79083 nodes written.
   69199 elements written.
       1 node sets written.
         pressure is written as result for 79083 nodes
         velocity-magnitude is written as result for 79083 nodes
         x-velocity is written as result for 79083 nodes
         y-velocity is written as result for 79083 nodes
         z-velocity is written as result for 79083 nodes
         vorticity-mag is written as result for 79083 nodes
         helicity is written as result for 79083 nodes
         x-vorticity is written as result for 79083 nodes
         y-vorticity is written as result for 79083 nodes
         z-vorticity is written as result for 79083 nodes
         q-criterion is written as result for 79083 nodes
         raw-q-criterion is written as result for 79083 nodes
         temperature is written as result for 79083 nodes
         turb-kinetic-energy is written as result for 79083 nodes
         turb-intensity is written as result for 79083 nodes
         turb-diss-rate is written as result for 79083 nodes
         oh is written as result for 79083 nodes
         ch2o is written as result for 79083 nodes
         fmean is written as result for 79083 nodes
         heat-release-rate is written as result for 79083 nodes
         premixc is written as result for 79083 nodes
         damkohler-number is written as result for 79083 nodes
         stretch-fac is written as result for 79083 nodes
         turbulent-flame-speed is written as result for 79083 nodes
Done. 

Closing library "C:\\PROGRA~1\\ANSYS Inc\\v222\\fluent\\fluent22.2.0\\vki\\win64\\devtools4.4.6.dll"... done.




> (cx-gui-do cx-activate-item "Export*Table1*Table2*Table3*List1(Surfaces)")



> (cx-gui-do cx-set-list-selections "Export*Table1*Table2*Table3*List1(Surfaces)" '())



> (cx-gui-do cx-activate-item "Export*PanelButtons*PushButton2(Cancel)")
(cx-gui-do cx-activate-item "Export*PanelButtons*PushButton2(Cancel)")



> (cx-gui-do cx-activate-item "MenuBar*WriteSubMenu*Stop Journal")



> 
Writing to WIN-I21RD2LCQ0C:"F:\calculations\1-5nozzle-fullgridandcorexperiment\1nozzle\48\48-0.9\48-0.9.cas.h5" in NODE0 mode and compression level 1 ...
     8736228 cells,     1 zone  ...
    31516610 faces,     8 zones ...
    15185679 nodes,     1 zone  ...
  Done.
Done.

Writing to WIN-I21RD2LCQ0C:"F:\calculations\1-5nozzle-fullgridandcorexperiment\1nozzle\48\48-0.9\48-0.9.dat.h5" in NODE0 mode and compression level 1 ...
  Writing results.
Done.
Multicore SMT processors detected. Processor affinity set!

Error: list-remove: null list
Error Object: #f

       Clearing partially read grid.

Reading from WIN-I21RD2LCQ0C:"F:\calculations\1-5nozzle-fullgridandcorexperiment\1nozzle\48\48-0.8\48-0.8.cas.h5" in NODE0 mode ...
  Reading mesh ...
Warning: reading 47 partition grid onto 11 compute node machine.
         will auto partition.
     8736228 cells,     1 cell zone  ...
        8736228 mixed cells,  zone id: 7368
    31516610 faces,     8 face zones ...
         380908 polygonal wall faces,  zone id: 7376
          41176 polygonal pressure-outlet faces,  zone id: 7
            665 polygonal mass-flow-inlet faces,  zone id: 6
            670 polygonal mass-flow-inlet faces,  zone id: 5
            679 polygonal mass-flow-inlet faces,  zone id: 4
            674 polygonal mass-flow-inlet faces,  zone id: 3
            673 polygonal mass-flow-inlet faces,  zone id: 227
       31091165 mixed interior faces,  zone id: 7369
    15185679 nodes,     1 node zone  ...
  Done.


Building...
     mesh
	auto partitioning mesh by Metis (fast),
	distributing mesh
		parts...........,
		faces...........,
		nodes...........,
		cells...........,
        bandwidth reduction using Reverse Cuthill-McKee: 805737/9530 = 84.5474
     materials,
     interface,
     domains,
	mixture
     zones,
	zone48-0.25:48-0.25---1
	outlet
	interior-62
	inlet-middle
	inlet-1
	inlet-2
	inlet-3
	inlet-4
	zone48-0.25:48-0.25---1:60
     parallel,

Reading "F:\calculations\1-5nozzle-fullgridandcorexperiment\1nozzle\48\48-0.8\0.5.pdf"...

	Version of the file: "fluent18.0" 
  Read PDF case variables
	Type of the PDF Table: Nonadiabatic Table with FGM Model (Two Streams) 
  Read species data
  Read stream inlets
  Read PDF tables
    - mixture fraction table
    - temperature table
    - density table
    - specific heat table
      reading species            1 of  20  2 of  20  3 of  20  4 of  20  5 of  20  6 of  20  7 of  20  8 of  20  9 of  20 10 of  20 11 of  20 12 of  20 13 of  20 14 of  20 15 of  20 16 of  20 17 of  20 18 of  20 19 of  20 20 of  20
    - species mole fraction table

  Read intermediate data
Read 20 species (sectioned c, 3D prepdf)
PDF file successfully read.

Done.

Reading from WIN-I21RD2LCQ0C:"F:\calculations\1-5nozzle-fullgridandcorexperiment\1nozzle\48\48-0.8\48-0.8.dat.h5" in NODE0 mode ...


  Reading results.
Parallel variables...

 turbulent viscosity limited to viscosity ratio of 1.000000e+05 in 1502 cells 
Done.

Reading journal file F:\calculations\1-5nozzle-fullgridandcorexperiment\postprocessing\1nozzle\48\48-0.8\48-0.845plane.txt...

> /file/set-tui-version "22.2"

> (cx-gui-do cx-activate-item "Ribbon*Frame1*Frame2(Domain)*Table1*Table3(Surface)*PushButton1(Create)")



> (cx-gui-do cx-activate-item "MenuBar*PopupMenuCreate*Plane...")



> (cx-gui-do cx-set-list-selections "Plane Surface*Table1*Table2(Method)*DropDownList1" '( 4))



> (cx-gui-do cx-activate-item "Plane Surface*Table1*Table2(Method)*DropDownList1")



> (cx-gui-do cx-set-text-entry "Plane Surface*Table1*Table1*TextEntry1(New Surface Name)" "far")



> (cx-gui-do cx-set-real-entry-list "Plane Surface*Table1*Frame4*Table1*Table1(Point 1)*RealEntry1(X)" '( 0.15360000000000001))



> (cx-gui-do cx-activate-item "Plane Surface*Table1*Frame4*Table1*Table1(Point 1)*RealEntry1(X)")



> (cx-gui-do cx-set-real-entry-list "Plane Surface*Table1*Frame4*Table1*Table1(Point 1)*RealEntry2(Y)" '( 0))



> (cx-gui-do cx-activate-item "Plane Surface*Table1*Frame4*Table1*Table1(Point 1)*RealEntry2(Y)")



> (cx-gui-do cx-set-real-entry-list "Plane Surface*Table1*Frame4*Table1*Table1(Point 1)*RealEntry3(Z)" '( -0.30720000000000003))



> (cx-gui-do cx-activate-item "Plane Surface*Table1*Frame4*Table1*Table1(Point 1)*RealEntry3(Z)")



> (cx-gui-do cx-set-real-entry-list "Plane Surface*Table1*Frame4*Table1*Table2(Point 2)*RealEntry1(X)" '( 0))



> (cx-gui-do cx-activate-item "Plane Surface*Table1*Frame4*Table1*Table2(Point 2)*RealEntry1(X)")



> (cx-gui-do cx-set-real-entry-list "Plane Surface*Table1*Frame4*Table1*Table2(Point 2)*RealEntry2(Y)" '( -0.15360000000000001))



> (cx-gui-do cx-activate-item "Plane Surface*Table1*Frame4*Table1*Table2(Point 2)*RealEntry2(Y)")



> (cx-gui-do cx-set-real-entry-list "Plane Surface*Table1*Frame4*Table1*Table2(Point 2)*RealEntry3(Z)" '( -0.30720000000000003))



> (cx-gui-do cx-activate-item "Plane Surface*Table1*Frame4*Table1*Table2(Point 2)*RealEntry3(Z)")



> (cx-gui-do cx-set-real-entry-list "Plane Surface*Table1*Frame4*Table1*Table3(Point 3)*RealEntry1(X)" '( 0.15360000000000001))



> (cx-gui-do cx-activate-item "Plane Surface*Table1*Frame4*Table1*Table3(Point 3)*RealEntry1(X)")



> (cx-gui-do cx-set-real-entry-list "Plane Surface*Table1*Frame4*Table1*Table3(Point 3)*RealEntry2(Y)" '( 0))



> (cx-gui-do cx-activate-item "Plane Surface*Table1*Frame4*Table1*Table3(Point 3)*RealEntry2(Y)")



> (cx-gui-do cx-set-real-entry-list "Plane Surface*Table1*Frame4*Table1*Table3(Point 3)*RealEntry3(Z)" '( -0.0064))



> (cx-gui-do cx-activate-item "Plane Surface*Table1*Frame4*Table1*Table3(Point 3)*RealEntry3(Z)")



> (cx-gui-do cx-activate-item "Plane Surface*PanelButtons*PushButton1(OK)")
(cx-gui-do cx-activate-item "Plane Surface*PanelButtons*PushButton1(OK)")



> (cx-gui-do cx-activate-item "Plane Surface*PanelButtons*PushButton2(Cancel)")
(cx-gui-do cx-activate-item "Plane Surface*PanelButtons*PushButton2(Cancel)")



> (cx-gui-do cx-activate-item "MenuBar*WriteSubMenu*Stop Journal")



> 
Reading journal file F:\calculations\1-5nozzle-fullgridandcorexperiment\postprocessing\1nozzle\48\48-0.8\48-0.845.txt...

> /file/set-tui-version "22.2"

> (cx-gui-do cx-activate-item "MenuBar*ExportSubMenu*Solution Data...")



> (cx-gui-do cx-set-list-selections "Export*Table1*Table1*DropDownList2(File Type)" '( 13))



> (cx-gui-do cx-activate-item "Export*Table1*Table1*DropDownList2(File Type)")



> (cx-gui-do cx-set-list-selections "Export*Table1*Table2*Table4*List1(Quantities)" '( 0))



> (cx-gui-do cx-activate-item "Export*Table1*Table2*Table4*List1(Quantities)")



> (cx-gui-do cx-set-list-selections "Export*Table1*Table2*Table4*List1(Quantities)" '( 0 8))



> (cx-gui-do cx-activate-item "Export*Table1*Table2*Table4*List1(Quantities)")



> (cx-gui-do cx-set-list-selections "Export*Table1*Table2*Table4*List1(Quantities)" '( 0 8 9))



> (cx-gui-do cx-activate-item "Export*Table1*Table2*Table4*List1(Quantities)")



> (cx-gui-do cx-set-list-selections "Export*Table1*Table2*Table4*List1(Quantities)" '( 0 8 9 10))



> (cx-gui-do cx-activate-item "Export*Table1*Table2*Table4*List1(Quantities)")



> (cx-gui-do cx-set-list-selections "Export*Table1*Table2*Table4*List1(Quantities)" '( 0 8 9 10 11))



> (cx-gui-do cx-activate-item "Export*Table1*Table2*Table4*List1(Quantities)")



> (cx-gui-do cx-set-list-selections "Export*Table1*Table2*Table4*List1(Quantities)" '( 0 8 9 10 11 25))



> (cx-gui-do cx-activate-item "Export*Table1*Table2*Table4*List1(Quantities)")



> (cx-gui-do cx-set-list-selections "Export*Table1*Table2*Table4*List1(Quantities)" '( 0 8 9 10 11 25 26))



> (cx-gui-do cx-activate-item "Export*Table1*Table2*Table4*List1(Quantities)")



> (cx-gui-do cx-set-list-selections "Export*Table1*Table2*Table4*List1(Quantities)" '( 0 8 9 10 11 25 26 27))



> (cx-gui-do cx-activate-item "Export*Table1*Table2*Table4*List1(Quantities)")



> (cx-gui-do cx-set-list-selections "Export*Table1*Table2*Table4*List1(Quantities)" '( 0 8 9 10 11 25 26 27 28))



> (cx-gui-do cx-activate-item "Export*Table1*Table2*Table4*List1(Quantities)")



> (cx-gui-do cx-set-list-selections "Export*Table1*Table2*Table4*List1(Quantities)" '( 0 8 9 10 11 25 26 27 28 29))



> (cx-gui-do cx-activate-item "Export*Table1*Table2*Table4*List1(Quantities)")



> (cx-gui-do cx-set-list-selections "Export*Table1*Table2*Table4*List1(Quantities)" '( 0 8 9 10 11 25 26 27 28 29 31))



> (cx-gui-do cx-activate-item "Export*Table1*Table2*Table4*List1(Quantities)")



> (cx-gui-do cx-set-list-selections "Export*Table1*Table2*Table4*List1(Quantities)" '( 0 8 9 10 11 25 26 27 28 29 31 32))



> (cx-gui-do cx-activate-item "Export*Table1*Table2*Table4*List1(Quantities)")



> (cx-gui-do cx-set-list-selections "Export*Table1*Table2*Table4*List1(Quantities)" '( 0 8 9 10 11 25 26 27 28 29 31 32 34))



> (cx-gui-do cx-activate-item "Export*Table1*Table2*Table4*List1(Quantities)")



> (cx-gui-do cx-set-list-selections "Export*Table1*Table2*Table4*List1(Quantities)" '( 0 8 9 10 11 25 26 27 28 29 31 32 34 50))



> (cx-gui-do cx-activate-item "Export*Table1*Table2*Table4*List1(Quantities)")



> (cx-gui-do cx-set-list-selections "Export*Table1*Table2*Table4*List1(Quantities)" '( 0 8 9 10 11 25 26 27 28 29 31 32 34 50 51))



> (cx-gui-do cx-activate-item "Export*Table1*Table2*Table4*List1(Quantities)")



> (cx-gui-do cx-set-list-selections "Export*Table1*Table2*Table4*List1(Quantities)" '( 0 8 9 10 11 25 26 27 28 29 31 32 34 50 51 52))



> (cx-gui-do cx-activate-item "Export*Table1*Table2*Table4*List1(Quantities)")



> (cx-gui-do cx-set-list-selections "Export*Table1*Table2*Table4*List1(Quantities)" '( 0 8 9 10 11 25 26 27 28 29 31 32 34 50 51 52 69))



> (cx-gui-do cx-activate-item "Export*Table1*Table2*Table4*List1(Quantities)")



> (cx-gui-do cx-set-list-selections "Export*Table1*Table2*Table4*List1(Quantities)" '( 0 8 9 10 11 25 26 27 28 29 31 32 34 50 51 52 69 76))



> (cx-gui-do cx-activate-item "Export*Table1*Table2*Table4*List1(Quantities)")



> (cx-gui-do cx-set-list-selections "Export*Table1*Table2*Table4*List1(Quantities)" '( 0 8 9 10 11 25 26 27 28 29 31 32 34 50 51 52 69 76 142))



> (cx-gui-do cx-activate-item "Export*Table1*Table2*Table4*List1(Quantities)")



> (cx-gui-do cx-set-list-selections "Export*Table1*Table2*Table4*List1(Quantities)" '( 0 8 9 10 11 25 26 27 28 29 31 32 34 50 51 52 69 76 142 146))



> (cx-gui-do cx-activate-item "Export*Table1*Table2*Table4*List1(Quantities)")



> (cx-gui-do cx-set-list-selections "Export*Table1*Table2*Table4*List1(Quantities)" '( 0 8 9 10 11 25 26 27 28 29 31 32 34 50 51 52 69 76 142 146 149))



> (cx-gui-do cx-activate-item "Export*Table1*Table2*Table4*List1(Quantities)")



> (cx-gui-do cx-set-list-selections "Export*Table1*Table2*Table4*List1(Quantities)" '( 0 8 9 10 11 25 26 27 28 29 31 32 34 50 51 52 69 76 142 146 149 151))



> (cx-gui-do cx-activate-item "Export*Table1*Table2*Table4*List1(Quantities)")



> (cx-gui-do cx-set-list-selections "Export*Table1*Table2*Table4*List1(Quantities)" '( 0 8 9 10 11 25 26 27 28 29 31 32 34 50 51 52 69 76 142 146 149 151 152))



> (cx-gui-do cx-activate-item "Export*Table1*Table2*Table4*List1(Quantities)")



> (cx-gui-do cx-set-list-selections "Export*Table1*Table2*Table4*List1(Quantities)" '( 0 8 9 10 11 25 26 27 28 29 31 32 34 50 51 52 69 76 142 146 149 151 152 153))



> (cx-gui-do cx-activate-item "Export*Table1*Table2*Table4*List1(Quantities)")



> (cx-gui-do cx-set-list-selections "Export*Table1*Table2*Table3*List1(Surfaces)" '( 6))



> (cx-gui-do cx-activate-item "Export*Table1*Table2*Table3*List1(Surfaces)")



> (cx-gui-do cx-activate-item "Export*PanelButtons*PushButton1(OK)")
(cx-gui-do cx-activate-item "Export*PanelButtons*PushButton1(OK)")



> (cx-gui-do cx-set-file-dialog-entries "Select File" '( "F:\calculations\1-5nozzle-fullgridandcorexperiment\postprocessing\1nozzle\48\48-0.8\45.plt") "Tecplot Files ()")

Opening library "C:\\PROGRA~1\\ANSYS Inc\\v222\\fluent\\fluent22.2.0\\vki\\win64\\devtools4.4.6.dll"... done.


Writing "F:\\calculations\\1-5nozzle-fullgridandcorexperiment\\postprocessing\\1nozzle\\48\\48-0.8\\45.plt"
   79081 nodes written.
   69199 elements written.
       1 node sets written.
         pressure is written as result for 79081 nodes
         velocity-magnitude is written as result for 79081 nodes
         x-velocity is written as result for 79081 nodes
         y-velocity is written as result for 79081 nodes
         z-velocity is written as result for 79081 nodes
         vorticity-mag is written as result for 79081 nodes
         helicity is written as result for 79081 nodes
         x-vorticity is written as result for 79081 nodes
         y-vorticity is written as result for 79081 nodes
         z-vorticity is written as result for 79081 nodes
         q-criterion is written as result for 79081 nodes
         raw-q-criterion is written as result for 79081 nodes
         temperature is written as result for 79081 nodes
         turb-kinetic-energy is written as result for 79081 nodes
         turb-intensity is written as result for 79081 nodes
         turb-diss-rate is written as result for 79081 nodes
         oh is written as result for 79081 nodes
         ch2o is written as result for 79081 nodes
         fmean is written as result for 79081 nodes
         heat-release-rate is written as result for 79081 nodes
         premixc is written as result for 79081 nodes
         damkohler-number is written as result for 79081 nodes
         stretch-fac is written as result for 79081 nodes
         turbulent-flame-speed is written as result for 79081 nodes
Done. 

Closing library "C:\\PROGRA~1\\ANSYS Inc\\v222\\fluent\\fluent22.2.0\\vki\\win64\\devtools4.4.6.dll"... done.




> (cx-gui-do cx-activate-item "Export*Table1*Table2*Table3*List1(Surfaces)")



> (cx-gui-do cx-set-list-selections "Export*Table1*Table2*Table3*List1(Surfaces)" '())



> (cx-gui-do cx-activate-item "Export*PanelButtons*PushButton2(Cancel)")
(cx-gui-do cx-activate-item "Export*PanelButtons*PushButton2(Cancel)")



> (cx-gui-do cx-activate-item "MenuBar*WriteSubMenu*Stop Journal")



> 
Writing to WIN-I21RD2LCQ0C:"F:\calculations\1-5nozzle-fullgridandcorexperiment\1nozzle\48\48-0.8\48-0.8.cas.h5" in NODE0 mode and compression level 1 ...
     8736228 cells,     1 zone  ...
    31516610 faces,     8 zones ...
    15185679 nodes,     1 zone  ...
  Done.
Done.

Writing to WIN-I21RD2LCQ0C:"F:\calculations\1-5nozzle-fullgridandcorexperiment\1nozzle\48\48-0.8\48-0.8.dat.h5" in NODE0 mode and compression level 1 ...
  Writing results.
Done.
Multicore SMT processors detected. Processor affinity set!

Error: list-remove: null list
Error Object: #f

       Clearing partially read grid.

Reading from WIN-I21RD2LCQ0C:"F:\calculations\1-5nozzle-fullgridandcorexperiment\1nozzle\48\48-0.7\48-0.7.cas.h5" in NODE0 mode ...
  Reading mesh ...
Warning: reading 47 partition grid onto 11 compute node machine.
         will auto partition.
     8736228 cells,     1 cell zone  ...
        8736228 mixed cells,  zone id: 7368
    31516610 faces,     8 face zones ...
         380908 polygonal wall faces,  zone id: 7376
          41176 polygonal pressure-outlet faces,  zone id: 7
            665 polygonal mass-flow-inlet faces,  zone id: 6
            670 polygonal mass-flow-inlet faces,  zone id: 5
            679 polygonal mass-flow-inlet faces,  zone id: 4
            674 polygonal mass-flow-inlet faces,  zone id: 3
            673 polygonal mass-flow-inlet faces,  zone id: 227
       31091165 mixed interior faces,  zone id: 7369
    15185679 nodes,     1 node zone  ...
  Done.


Building...
     mesh
	auto partitioning mesh by Metis (fast),
	distributing mesh
		parts...........,
		faces...........,
		nodes...........,
		cells...........,
        bandwidth reduction using Reverse Cuthill-McKee: 805737/9530 = 84.5474
     materials,
     interface,
     domains,
	mixture
     zones,
	zone48-0.25:48-0.25---1
	outlet
	interior-62
	inlet-middle
	inlet-1
	inlet-2
	inlet-3
	inlet-4
	zone48-0.25:48-0.25---1:60
     parallel,

Reading "F:\calculations\1-5nozzle-fullgridandcorexperiment\1nozzle\48\48-0.7\0.5.pdf"...

	Version of the file: "fluent18.0" 
  Read PDF case variables
	Type of the PDF Table: Nonadiabatic Table with FGM Model (Two Streams) 
  Read species data
  Read stream inlets
  Read PDF tables
    - mixture fraction table
    - temperature table
    - density table
    - specific heat table
      reading species            1 of  20  2 of  20  3 of  20  4 of  20  5 of  20  6 of  20  7 of  20  8 of  20  9 of  20 10 of  20 11 of  20 12 of  20 13 of  20 14 of  20 15 of  20 16 of  20 17 of  20 18 of  20 19 of  20 20 of  20
    - species mole fraction table

  Read intermediate data
Read 20 species (sectioned c, 3D prepdf)
PDF file successfully read.

Done.

Reading from WIN-I21RD2LCQ0C:"F:\calculations\1-5nozzle-fullgridandcorexperiment\1nozzle\48\48-0.7\48-0.7.dat.h5" in NODE0 mode ...


  Reading results.
Parallel variables...
Done.

Reading journal file F:\calculations\1-5nozzle-fullgridandcorexperiment\postprocessing\1nozzle\48\48-0.7\48-0.745plane.txt...

> /file/set-tui-version "22.2"

> (cx-gui-do cx-activate-item "Ribbon*Frame1*Frame2(Domain)*Table1*Table3(Surface)*PushButton1(Create)")



> (cx-gui-do cx-activate-item "MenuBar*PopupMenuCreate*Plane...")



> (cx-gui-do cx-set-list-selections "Plane Surface*Table1*Table2(Method)*DropDownList1" '( 4))



> (cx-gui-do cx-activate-item "Plane Surface*Table1*Table2(Method)*DropDownList1")



> (cx-gui-do cx-set-text-entry "Plane Surface*Table1*Table1*TextEntry1(New Surface Name)" "far")



> (cx-gui-do cx-set-real-entry-list "Plane Surface*Table1*Frame4*Table1*Table1(Point 1)*RealEntry1(X)" '( 0.1344))



> (cx-gui-do cx-activate-item "Plane Surface*Table1*Frame4*Table1*Table1(Point 1)*RealEntry1(X)")



> (cx-gui-do cx-set-real-entry-list "Plane Surface*Table1*Frame4*Table1*Table1(Point 1)*RealEntry2(Y)" '( 0))



> (cx-gui-do cx-activate-item "Plane Surface*Table1*Frame4*Table1*Table1(Point 1)*RealEntry2(Y)")



> (cx-gui-do cx-set-real-entry-list "Plane Surface*Table1*Frame4*Table1*Table1(Point 1)*RealEntry3(Z)" '( -0.2688))



> (cx-gui-do cx-activate-item "Plane Surface*Table1*Frame4*Table1*Table1(Point 1)*RealEntry3(Z)")



> (cx-gui-do cx-set-real-entry-list "Plane Surface*Table1*Frame4*Table1*Table2(Point 2)*RealEntry1(X)" '( 0))



> (cx-gui-do cx-activate-item "Plane Surface*Table1*Frame4*Table1*Table2(Point 2)*RealEntry1(X)")



> (cx-gui-do cx-set-real-entry-list "Plane Surface*Table1*Frame4*Table1*Table2(Point 2)*RealEntry2(Y)" '( -0.1344))



> (cx-gui-do cx-activate-item "Plane Surface*Table1*Frame4*Table1*Table2(Point 2)*RealEntry2(Y)")



> (cx-gui-do cx-set-real-entry-list "Plane Surface*Table1*Frame4*Table1*Table2(Point 2)*RealEntry3(Z)" '( -0.2688))



> (cx-gui-do cx-activate-item "Plane Surface*Table1*Frame4*Table1*Table2(Point 2)*RealEntry3(Z)")



> (cx-gui-do cx-set-real-entry-list "Plane Surface*Table1*Frame4*Table1*Table3(Point 3)*RealEntry1(X)" '( 0.1344))



> (cx-gui-do cx-activate-item "Plane Surface*Table1*Frame4*Table1*Table3(Point 3)*RealEntry1(X)")



> (cx-gui-do cx-set-real-entry-list "Plane Surface*Table1*Frame4*Table1*Table3(Point 3)*RealEntry2(Y)" '( 0))



> (cx-gui-do cx-activate-item "Plane Surface*Table1*Frame4*Table1*Table3(Point 3)*RealEntry2(Y)")



> (cx-gui-do cx-set-real-entry-list "Plane Surface*Table1*Frame4*Table1*Table3(Point 3)*RealEntry3(Z)" '( -0.0056))



> (cx-gui-do cx-activate-item "Plane Surface*Table1*Frame4*Table1*Table3(Point 3)*RealEntry3(Z)")



> (cx-gui-do cx-activate-item "Plane Surface*PanelButtons*PushButton1(OK)")
(cx-gui-do cx-activate-item "Plane Surface*PanelButtons*PushButton1(OK)")



> (cx-gui-do cx-activate-item "Plane Surface*PanelButtons*PushButton2(Cancel)")
(cx-gui-do cx-activate-item "Plane Surface*PanelButtons*PushButton2(Cancel)")



> (cx-gui-do cx-activate-item "MenuBar*WriteSubMenu*Stop Journal")



> 
Reading journal file F:\calculations\1-5nozzle-fullgridandcorexperiment\postprocessing\1nozzle\48\48-0.7\48-0.745.txt...

> /file/set-tui-version "22.2"

> (cx-gui-do cx-activate-item "MenuBar*ExportSubMenu*Solution Data...")



> (cx-gui-do cx-set-list-selections "Export*Table1*Table1*DropDownList2(File Type)" '( 13))



> (cx-gui-do cx-activate-item "Export*Table1*Table1*DropDownList2(File Type)")



> (cx-gui-do cx-set-list-selections "Export*Table1*Table2*Table4*List1(Quantities)" '( 0))



> (cx-gui-do cx-activate-item "Export*Table1*Table2*Table4*List1(Quantities)")



> (cx-gui-do cx-set-list-selections "Export*Table1*Table2*Table4*List1(Quantities)" '( 0 8))



> (cx-gui-do cx-activate-item "Export*Table1*Table2*Table4*List1(Quantities)")



> (cx-gui-do cx-set-list-selections "Export*Table1*Table2*Table4*List1(Quantities)" '( 0 8 9))



> (cx-gui-do cx-activate-item "Export*Table1*Table2*Table4*List1(Quantities)")



> (cx-gui-do cx-set-list-selections "Export*Table1*Table2*Table4*List1(Quantities)" '( 0 8 9 10))



> (cx-gui-do cx-activate-item "Export*Table1*Table2*Table4*List1(Quantities)")



> (cx-gui-do cx-set-list-selections "Export*Table1*Table2*Table4*List1(Quantities)" '( 0 8 9 10 11))



> (cx-gui-do cx-activate-item "Export*Table1*Table2*Table4*List1(Quantities)")



> (cx-gui-do cx-set-list-selections "Export*Table1*Table2*Table4*List1(Quantities)" '( 0 8 9 10 11 25))



> (cx-gui-do cx-activate-item "Export*Table1*Table2*Table4*List1(Quantities)")



> (cx-gui-do cx-set-list-selections "Export*Table1*Table2*Table4*List1(Quantities)" '( 0 8 9 10 11 25 26))



> (cx-gui-do cx-activate-item "Export*Table1*Table2*Table4*List1(Quantities)")



> (cx-gui-do cx-set-list-selections "Export*Table1*Table2*Table4*List1(Quantities)" '( 0 8 9 10 11 25 26 27))



> (cx-gui-do cx-activate-item "Export*Table1*Table2*Table4*List1(Quantities)")



> (cx-gui-do cx-set-list-selections "Export*Table1*Table2*Table4*List1(Quantities)" '( 0 8 9 10 11 25 26 27 28))



> (cx-gui-do cx-activate-item "Export*Table1*Table2*Table4*List1(Quantities)")



> (cx-gui-do cx-set-list-selections "Export*Table1*Table2*Table4*List1(Quantities)" '( 0 8 9 10 11 25 26 27 28 29))



> (cx-gui-do cx-activate-item "Export*Table1*Table2*Table4*List1(Quantities)")



> (cx-gui-do cx-set-list-selections "Export*Table1*Table2*Table4*List1(Quantities)" '( 0 8 9 10 11 25 26 27 28 29 31))



> (cx-gui-do cx-activate-item "Export*Table1*Table2*Table4*List1(Quantities)")



> (cx-gui-do cx-set-list-selections "Export*Table1*Table2*Table4*List1(Quantities)" '( 0 8 9 10 11 25 26 27 28 29 31 32))



> (cx-gui-do cx-activate-item "Export*Table1*Table2*Table4*List1(Quantities)")



> (cx-gui-do cx-set-list-selections "Export*Table1*Table2*Table4*List1(Quantities)" '( 0 8 9 10 11 25 26 27 28 29 31 32 34))



> (cx-gui-do cx-activate-item "Export*Table1*Table2*Table4*List1(Quantities)")



> (cx-gui-do cx-set-list-selections "Export*Table1*Table2*Table4*List1(Quantities)" '( 0 8 9 10 11 25 26 27 28 29 31 32 34 50))



> (cx-gui-do cx-activate-item "Export*Table1*Table2*Table4*List1(Quantities)")



> (cx-gui-do cx-set-list-selections "Export*Table1*Table2*Table4*List1(Quantities)" '( 0 8 9 10 11 25 26 27 28 29 31 32 34 50 51))



> (cx-gui-do cx-activate-item "Export*Table1*Table2*Table4*List1(Quantities)")



> (cx-gui-do cx-set-list-selections "Export*Table1*Table2*Table4*List1(Quantities)" '( 0 8 9 10 11 25 26 27 28 29 31 32 34 50 51 52))



> (cx-gui-do cx-activate-item "Export*Table1*Table2*Table4*List1(Quantities)")



> (cx-gui-do cx-set-list-selections "Export*Table1*Table2*Table4*List1(Quantities)" '( 0 8 9 10 11 25 26 27 28 29 31 32 34 50 51 52 69))



> (cx-gui-do cx-activate-item "Export*Table1*Table2*Table4*List1(Quantities)")



> (cx-gui-do cx-set-list-selections "Export*Table1*Table2*Table4*List1(Quantities)" '( 0 8 9 10 11 25 26 27 28 29 31 32 34 50 51 52 69 76))



> (cx-gui-do cx-activate-item "Export*Table1*Table2*Table4*List1(Quantities)")



> (cx-gui-do cx-set-list-selections "Export*Table1*Table2*Table4*List1(Quantities)" '( 0 8 9 10 11 25 26 27 28 29 31 32 34 50 51 52 69 76 142))



> (cx-gui-do cx-activate-item "Export*Table1*Table2*Table4*List1(Quantities)")



> (cx-gui-do cx-set-list-selections "Export*Table1*Table2*Table4*List1(Quantities)" '( 0 8 9 10 11 25 26 27 28 29 31 32 34 50 51 52 69 76 142 146))



> (cx-gui-do cx-activate-item "Export*Table1*Table2*Table4*List1(Quantities)")



> (cx-gui-do cx-set-list-selections "Export*Table1*Table2*Table4*List1(Quantities)" '( 0 8 9 10 11 25 26 27 28 29 31 32 34 50 51 52 69 76 142 146 149))



> (cx-gui-do cx-activate-item "Export*Table1*Table2*Table4*List1(Quantities)")



> (cx-gui-do cx-set-list-selections "Export*Table1*Table2*Table4*List1(Quantities)" '( 0 8 9 10 11 25 26 27 28 29 31 32 34 50 51 52 69 76 142 146 149 151))



> (cx-gui-do cx-activate-item "Export*Table1*Table2*Table4*List1(Quantities)")



> (cx-gui-do cx-set-list-selections "Export*Table1*Table2*Table4*List1(Quantities)" '( 0 8 9 10 11 25 26 27 28 29 31 32 34 50 51 52 69 76 142 146 149 151 152))



> (cx-gui-do cx-activate-item "Export*Table1*Table2*Table4*List1(Quantities)")



> (cx-gui-do cx-set-list-selections "Export*Table1*Table2*Table4*List1(Quantities)" '( 0 8 9 10 11 25 26 27 28 29 31 32 34 50 51 52 69 76 142 146 149 151 152 153))



> (cx-gui-do cx-activate-item "Export*Table1*Table2*Table4*List1(Quantities)")



> (cx-gui-do cx-set-list-selections "Export*Table1*Table2*Table3*List1(Surfaces)" '( 6))



> (cx-gui-do cx-activate-item "Export*Table1*Table2*Table3*List1(Surfaces)")



> (cx-gui-do cx-activate-item "Export*PanelButtons*PushButton1(OK)")
(cx-gui-do cx-activate-item "Export*PanelButtons*PushButton1(OK)")



> (cx-gui-do cx-set-file-dialog-entries "Select File" '( "F:\calculations\1-5nozzle-fullgridandcorexperiment\postprocessing\1nozzle\48\48-0.7\45.plt") "Tecplot Files ()")

Opening library "C:\\PROGRA~1\\ANSYS Inc\\v222\\fluent\\fluent22.2.0\\vki\\win64\\devtools4.4.6.dll"... done.


Writing "F:\\calculations\\1-5nozzle-fullgridandcorexperiment\\postprocessing\\1nozzle\\48\\48-0.7\\45.plt"
   79084 nodes written.
   69198 elements written.
       1 node sets written.
         pressure is written as result for 79084 nodes
         velocity-magnitude is written as result for 79084 nodes
         x-velocity is written as result for 79084 nodes
         y-velocity is written as result for 79084 nodes
         z-velocity is written as result for 79084 nodes
         vorticity-mag is written as result for 79084 nodes
         helicity is written as result for 79084 nodes
         x-vorticity is written as result for 79084 nodes
         y-vorticity is written as result for 79084 nodes
         z-vorticity is written as result for 79084 nodes
         q-criterion is written as result for 79084 nodes
         raw-q-criterion is written as result for 79084 nodes
         temperature is written as result for 79084 nodes
         turb-kinetic-energy is written as result for 79084 nodes
         turb-intensity is written as result for 79084 nodes
         turb-diss-rate is written as result for 79084 nodes
         oh is written as result for 79084 nodes
         ch2o is written as result for 79084 nodes
         fmean is written as result for 79084 nodes
         heat-release-rate is written as result for 79084 nodes
         premixc is written as result for 79084 nodes
         damkohler-number is written as result for 79084 nodes
         stretch-fac is written as result for 79084 nodes
         turbulent-flame-speed is written as result for 79084 nodes
Done. 

Closing library "C:\\PROGRA~1\\ANSYS Inc\\v222\\fluent\\fluent22.2.0\\vki\\win64\\devtools4.4.6.dll"... done.




> (cx-gui-do cx-activate-item "Export*Table1*Table2*Table3*List1(Surfaces)")



> (cx-gui-do cx-set-list-selections "Export*Table1*Table2*Table3*List1(Surfaces)" '())



> (cx-gui-do cx-activate-item "Export*PanelButtons*PushButton2(Cancel)")
(cx-gui-do cx-activate-item "Export*PanelButtons*PushButton2(Cancel)")



> (cx-gui-do cx-activate-item "MenuBar*WriteSubMenu*Stop Journal")



> 
Writing to WIN-I21RD2LCQ0C:"F:\calculations\1-5nozzle-fullgridandcorexperiment\1nozzle\48\48-0.7\48-0.7.cas.h5" in NODE0 mode and compression level 1 ...
     8736228 cells,     1 zone  ...
    31516610 faces,     8 zones ...
    15185679 nodes,     1 zone  ...
  Done.
Done.

Writing to WIN-I21RD2LCQ0C:"F:\calculations\1-5nozzle-fullgridandcorexperiment\1nozzle\48\48-0.7\48-0.7.dat.h5" in NODE0 mode and compression level 1 ...
  Writing results.
Done.
Multicore SMT processors detected. Processor affinity set!

Error: list-remove: null list
Error Object: #f

       Clearing partially read grid.

Reading from WIN-I21RD2LCQ0C:"F:\calculations\1-5nozzle-fullgridandcorexperiment\1nozzle\48\48-0.6\48-0.6.cas.h5" in NODE0 mode ...
  Reading mesh ...
Warning: reading 47 partition grid onto 11 compute node machine.
         will auto partition.
     8736228 cells,     1 cell zone  ...
        8736228 mixed cells,  zone id: 7368
    31516610 faces,     8 face zones ...
         380908 polygonal wall faces,  zone id: 7376
          41176 polygonal pressure-outlet faces,  zone id: 7
            665 polygonal mass-flow-inlet faces,  zone id: 6
            670 polygonal mass-flow-inlet faces,  zone id: 5
            679 polygonal mass-flow-inlet faces,  zone id: 4
            674 polygonal mass-flow-inlet faces,  zone id: 3
            673 polygonal mass-flow-inlet faces,  zone id: 227
       31091165 mixed interior faces,  zone id: 7369
    15185679 nodes,     1 node zone  ...
  Done.


Building...
     mesh
	auto partitioning mesh by Metis (fast),
	distributing mesh
		parts...........,
		faces...........,
		nodes...........,
		cells...........,
        bandwidth reduction using Reverse Cuthill-McKee: 805737/9530 = 84.5474
     materials,
     interface,
     domains,
	mixture
     zones,
	zone48-0.25:48-0.25---1
	outlet
	interior-62
	inlet-middle
	inlet-1
	inlet-2
	inlet-3
	inlet-4
	zone48-0.25:48-0.25---1:60
     parallel,

Reading "F:\calculations\1-5nozzle-fullgridandcorexperiment\1nozzle\48\48-0.6\0.5.pdf"...

	Version of the file: "fluent18.0" 
  Read PDF case variables
	Type of the PDF Table: Nonadiabatic Table with FGM Model (Two Streams) 
  Read species data
  Read stream inlets
  Read PDF tables
    - mixture fraction table
    - temperature table
    - density table
    - specific heat table
      reading species            1 of  20  2 of  20  3 of  20  4 of  20  5 of  20  6 of  20  7 of  20  8 of  20  9 of  20 10 of  20 11 of  20 12 of  20 13 of  20 14 of  20 15 of  20 16 of  20 17 of  20 18 of  20 19 of  20 20 of  20
    - species mole fraction table

  Read intermediate data
Read 20 species (sectioned c, 3D prepdf)
PDF file successfully read.

Done.

Reading from WIN-I21RD2LCQ0C:"F:\calculations\1-5nozzle-fullgridandcorexperiment\1nozzle\48\48-0.6\48-0.6.dat.h5" in NODE0 mode ...


  Reading results.
Parallel variables...
Done.

Reading journal file F:\calculations\1-5nozzle-fullgridandcorexperiment\postprocessing\1nozzle\48\48-0.6\48-0.645plane.txt...

> /file/set-tui-version "22.2"

> (cx-gui-do cx-activate-item "Ribbon*Frame1*Frame2(Domain)*Table1*Table3(Surface)*PushButton1(Create)")



> (cx-gui-do cx-activate-item "MenuBar*PopupMenuCreate*Plane...")



> (cx-gui-do cx-set-list-selections "Plane Surface*Table1*Table2(Method)*DropDownList1" '( 4))



> (cx-gui-do cx-activate-item "Plane Surface*Table1*Table2(Method)*DropDownList1")



> (cx-gui-do cx-set-text-entry "Plane Surface*Table1*Table1*TextEntry1(New Surface Name)" "far")



> (cx-gui-do cx-set-real-entry-list "Plane Surface*Table1*Frame4*Table1*Table1(Point 1)*RealEntry1(X)" '( 0.1152))



> (cx-gui-do cx-activate-item "Plane Surface*Table1*Frame4*Table1*Table1(Point 1)*RealEntry1(X)")



> (cx-gui-do cx-set-real-entry-list "Plane Surface*Table1*Frame4*Table1*Table1(Point 1)*RealEntry2(Y)" '( 0))



> (cx-gui-do cx-activate-item "Plane Surface*Table1*Frame4*Table1*Table1(Point 1)*RealEntry2(Y)")



> (cx-gui-do cx-set-real-entry-list "Plane Surface*Table1*Frame4*Table1*Table1(Point 1)*RealEntry3(Z)" '( -0.2304))



> (cx-gui-do cx-activate-item "Plane Surface*Table1*Frame4*Table1*Table1(Point 1)*RealEntry3(Z)")



> (cx-gui-do cx-set-real-entry-list "Plane Surface*Table1*Frame4*Table1*Table2(Point 2)*RealEntry1(X)" '( 0))



> (cx-gui-do cx-activate-item "Plane Surface*Table1*Frame4*Table1*Table2(Point 2)*RealEntry1(X)")



> (cx-gui-do cx-set-real-entry-list "Plane Surface*Table1*Frame4*Table1*Table2(Point 2)*RealEntry2(Y)" '( -0.1152))



> (cx-gui-do cx-activate-item "Plane Surface*Table1*Frame4*Table1*Table2(Point 2)*RealEntry2(Y)")



> (cx-gui-do cx-set-real-entry-list "Plane Surface*Table1*Frame4*Table1*Table2(Point 2)*RealEntry3(Z)" '( -0.2304))



> (cx-gui-do cx-activate-item "Plane Surface*Table1*Frame4*Table1*Table2(Point 2)*RealEntry3(Z)")



> (cx-gui-do cx-set-real-entry-list "Plane Surface*Table1*Frame4*Table1*Table3(Point 3)*RealEntry1(X)" '( 0.1152))



> (cx-gui-do cx-activate-item "Plane Surface*Table1*Frame4*Table1*Table3(Point 3)*RealEntry1(X)")



> (cx-gui-do cx-set-real-entry-list "Plane Surface*Table1*Frame4*Table1*Table3(Point 3)*RealEntry2(Y)" '( 0))



> (cx-gui-do cx-activate-item "Plane Surface*Table1*Frame4*Table1*Table3(Point 3)*RealEntry2(Y)")



> (cx-gui-do cx-set-real-entry-list "Plane Surface*Table1*Frame4*Table1*Table3(Point 3)*RealEntry3(Z)" '( -0.0048))



> (cx-gui-do cx-activate-item "Plane Surface*Table1*Frame4*Table1*Table3(Point 3)*RealEntry3(Z)")



> (cx-gui-do cx-activate-item "Plane Surface*PanelButtons*PushButton1(OK)")
(cx-gui-do cx-activate-item "Plane Surface*PanelButtons*PushButton1(OK)")



> (cx-gui-do cx-activate-item "Plane Surface*PanelButtons*PushButton2(Cancel)")
(cx-gui-do cx-activate-item "Plane Surface*PanelButtons*PushButton2(Cancel)")



> (cx-gui-do cx-activate-item "MenuBar*WriteSubMenu*Stop Journal")



> 
Reading journal file F:\calculations\1-5nozzle-fullgridandcorexperiment\postprocessing\1nozzle\48\48-0.6\48-0.645.txt...

> /file/set-tui-version "22.2"

> (cx-gui-do cx-activate-item "MenuBar*ExportSubMenu*Solution Data...")



> (cx-gui-do cx-set-list-selections "Export*Table1*Table1*DropDownList2(File Type)" '( 13))



> (cx-gui-do cx-activate-item "Export*Table1*Table1*DropDownList2(File Type)")



> (cx-gui-do cx-set-list-selections "Export*Table1*Table2*Table4*List1(Quantities)" '( 0))



> (cx-gui-do cx-activate-item "Export*Table1*Table2*Table4*List1(Quantities)")



> (cx-gui-do cx-set-list-selections "Export*Table1*Table2*Table4*List1(Quantities)" '( 0 8))



> (cx-gui-do cx-activate-item "Export*Table1*Table2*Table4*List1(Quantities)")



> (cx-gui-do cx-set-list-selections "Export*Table1*Table2*Table4*List1(Quantities)" '( 0 8 9))



> (cx-gui-do cx-activate-item "Export*Table1*Table2*Table4*List1(Quantities)")



> (cx-gui-do cx-set-list-selections "Export*Table1*Table2*Table4*List1(Quantities)" '( 0 8 9 10))



> (cx-gui-do cx-activate-item "Export*Table1*Table2*Table4*List1(Quantities)")



> (cx-gui-do cx-set-list-selections "Export*Table1*Table2*Table4*List1(Quantities)" '( 0 8 9 10 11))



> (cx-gui-do cx-activate-item "Export*Table1*Table2*Table4*List1(Quantities)")



> (cx-gui-do cx-set-list-selections "Export*Table1*Table2*Table4*List1(Quantities)" '( 0 8 9 10 11 25))



> (cx-gui-do cx-activate-item "Export*Table1*Table2*Table4*List1(Quantities)")



> (cx-gui-do cx-set-list-selections "Export*Table1*Table2*Table4*List1(Quantities)" '( 0 8 9 10 11 25 26))



> (cx-gui-do cx-activate-item "Export*Table1*Table2*Table4*List1(Quantities)")



> (cx-gui-do cx-set-list-selections "Export*Table1*Table2*Table4*List1(Quantities)" '( 0 8 9 10 11 25 26 27))



> (cx-gui-do cx-activate-item "Export*Table1*Table2*Table4*List1(Quantities)")



> (cx-gui-do cx-set-list-selections "Export*Table1*Table2*Table4*List1(Quantities)" '( 0 8 9 10 11 25 26 27 28))



> (cx-gui-do cx-activate-item "Export*Table1*Table2*Table4*List1(Quantities)")



> (cx-gui-do cx-set-list-selections "Export*Table1*Table2*Table4*List1(Quantities)" '( 0 8 9 10 11 25 26 27 28 29))



> (cx-gui-do cx-activate-item "Export*Table1*Table2*Table4*List1(Quantities)")



> (cx-gui-do cx-set-list-selections "Export*Table1*Table2*Table4*List1(Quantities)" '( 0 8 9 10 11 25 26 27 28 29 31))



> (cx-gui-do cx-activate-item "Export*Table1*Table2*Table4*List1(Quantities)")



> (cx-gui-do cx-set-list-selections "Export*Table1*Table2*Table4*List1(Quantities)" '( 0 8 9 10 11 25 26 27 28 29 31 32))



> (cx-gui-do cx-activate-item "Export*Table1*Table2*Table4*List1(Quantities)")



> (cx-gui-do cx-set-list-selections "Export*Table1*Table2*Table4*List1(Quantities)" '( 0 8 9 10 11 25 26 27 28 29 31 32 34))



> (cx-gui-do cx-activate-item "Export*Table1*Table2*Table4*List1(Quantities)")



> (cx-gui-do cx-set-list-selections "Export*Table1*Table2*Table4*List1(Quantities)" '( 0 8 9 10 11 25 26 27 28 29 31 32 34 50))



> (cx-gui-do cx-activate-item "Export*Table1*Table2*Table4*List1(Quantities)")



> (cx-gui-do cx-set-list-selections "Export*Table1*Table2*Table4*List1(Quantities)" '( 0 8 9 10 11 25 26 27 28 29 31 32 34 50 51))



> (cx-gui-do cx-activate-item "Export*Table1*Table2*Table4*List1(Quantities)")



> (cx-gui-do cx-set-list-selections "Export*Table1*Table2*Table4*List1(Quantities)" '( 0 8 9 10 11 25 26 27 28 29 31 32 34 50 51 52))



> (cx-gui-do cx-activate-item "Export*Table1*Table2*Table4*List1(Quantities)")



> (cx-gui-do cx-set-list-selections "Export*Table1*Table2*Table4*List1(Quantities)" '( 0 8 9 10 11 25 26 27 28 29 31 32 34 50 51 52 69))



> (cx-gui-do cx-activate-item "Export*Table1*Table2*Table4*List1(Quantities)")



> (cx-gui-do cx-set-list-selections "Export*Table1*Table2*Table4*List1(Quantities)" '( 0 8 9 10 11 25 26 27 28 29 31 32 34 50 51 52 69 76))



> (cx-gui-do cx-activate-item "Export*Table1*Table2*Table4*List1(Quantities)")



> (cx-gui-do cx-set-list-selections "Export*Table1*Table2*Table4*List1(Quantities)" '( 0 8 9 10 11 25 26 27 28 29 31 32 34 50 51 52 69 76 142))



> (cx-gui-do cx-activate-item "Export*Table1*Table2*Table4*List1(Quantities)")



> (cx-gui-do cx-set-list-selections "Export*Table1*Table2*Table4*List1(Quantities)" '( 0 8 9 10 11 25 26 27 28 29 31 32 34 50 51 52 69 76 142 146))



> (cx-gui-do cx-activate-item "Export*Table1*Table2*Table4*List1(Quantities)")



> (cx-gui-do cx-set-list-selections "Export*Table1*Table2*Table4*List1(Quantities)" '( 0 8 9 10 11 25 26 27 28 29 31 32 34 50 51 52 69 76 142 146 149))



> (cx-gui-do cx-activate-item "Export*Table1*Table2*Table4*List1(Quantities)")



> (cx-gui-do cx-set-list-selections "Export*Table1*Table2*Table4*List1(Quantities)" '( 0 8 9 10 11 25 26 27 28 29 31 32 34 50 51 52 69 76 142 146 149 151))



> (cx-gui-do cx-activate-item "Export*Table1*Table2*Table4*List1(Quantities)")



> (cx-gui-do cx-set-list-selections "Export*Table1*Table2*Table4*List1(Quantities)" '( 0 8 9 10 11 25 26 27 28 29 31 32 34 50 51 52 69 76 142 146 149 151 152))



> (cx-gui-do cx-activate-item "Export*Table1*Table2*Table4*List1(Quantities)")



> (cx-gui-do cx-set-list-selections "Export*Table1*Table2*Table4*List1(Quantities)" '( 0 8 9 10 11 25 26 27 28 29 31 32 34 50 51 52 69 76 142 146 149 151 152 153))



> (cx-gui-do cx-activate-item "Export*Table1*Table2*Table4*List1(Quantities)")



> (cx-gui-do cx-set-list-selections "Export*Table1*Table2*Table3*List1(Surfaces)" '( 6))



> (cx-gui-do cx-activate-item "Export*Table1*Table2*Table3*List1(Surfaces)")



> (cx-gui-do cx-activate-item "Export*PanelButtons*PushButton1(OK)")
(cx-gui-do cx-activate-item "Export*PanelButtons*PushButton1(OK)")



> (cx-gui-do cx-set-file-dialog-entries "Select File" '( "F:\calculations\1-5nozzle-fullgridandcorexperiment\postprocessing\1nozzle\48\48-0.6\45.plt") "Tecplot Files ()")

Opening library "C:\\PROGRA~1\\ANSYS Inc\\v222\\fluent\\fluent22.2.0\\vki\\win64\\devtools4.4.6.dll"... done.


Writing "F:\\calculations\\1-5nozzle-fullgridandcorexperiment\\postprocessing\\1nozzle\\48\\48-0.6\\45.plt"
   79085 nodes written.
   69198 elements written.
       1 node sets written.
         pressure is written as result for 79085 nodes
         velocity-magnitude is written as result for 79085 nodes
         x-velocity is written as result for 79085 nodes
         y-velocity is written as result for 79085 nodes
         z-velocity is written as result for 79085 nodes
         vorticity-mag is written as result for 79085 nodes
         helicity is written as result for 79085 nodes
         x-vorticity is written as result for 79085 nodes
         y-vorticity is written as result for 79085 nodes
         z-vorticity is written as result for 79085 nodes
         q-criterion is written as result for 79085 nodes
         raw-q-criterion is written as result for 79085 nodes
         temperature is written as result for 79085 nodes
         turb-kinetic-energy is written as result for 79085 nodes
         turb-intensity is written as result for 79085 nodes
         turb-diss-rate is written as result for 79085 nodes
         oh is written as result for 79085 nodes
         ch2o is written as result for 79085 nodes
         fmean is written as result for 79085 nodes
         heat-release-rate is written as result for 79085 nodes
         premixc is written as result for 79085 nodes
         damkohler-number is written as result for 79085 nodes
         stretch-fac is written as result for 79085 nodes
         turbulent-flame-speed is written as result for 79085 nodes
Done. 

Closing library "C:\\PROGRA~1\\ANSYS Inc\\v222\\fluent\\fluent22.2.0\\vki\\win64\\devtools4.4.6.dll"... done.




> (cx-gui-do cx-activate-item "Export*Table1*Table2*Table3*List1(Surfaces)")



> (cx-gui-do cx-set-list-selections "Export*Table1*Table2*Table3*List1(Surfaces)" '())



> (cx-gui-do cx-activate-item "Export*PanelButtons*PushButton2(Cancel)")
(cx-gui-do cx-activate-item "Export*PanelButtons*PushButton2(Cancel)")



> (cx-gui-do cx-activate-item "MenuBar*WriteSubMenu*Stop Journal")



> 
Writing to WIN-I21RD2LCQ0C:"F:\calculations\1-5nozzle-fullgridandcorexperiment\1nozzle\48\48-0.6\48-0.6.cas.h5" in NODE0 mode and compression level 1 ...
     8736228 cells,     1 zone  ...
    31516610 faces,     8 zones ...
    15185679 nodes,     1 zone  ...
  Done.
Done.

Writing to WIN-I21RD2LCQ0C:"F:\calculations\1-5nozzle-fullgridandcorexperiment\1nozzle\48\48-0.6\48-0.6.dat.h5" in NODE0 mode and compression level 1 ...
  Writing results.
Done.

WIN-I21RD2LCQ0C is already loaded (22.806).                       Process affinity not being set.

Error: list-remove: null list
Error Object: #f

       Clearing partially read grid.

Reading from WIN-I21RD2LCQ0C:"F:\calculations\1-5nozzle-fullgridandcorexperiment\1nozzle\48\48-0.45\48-0.45.cas.h5" in NODE0 mode ...
  Reading mesh ...
Warning: reading 47 partition grid onto 11 compute node machine.
         will auto partition.
     8736228 cells,     1 cell zone  ...
        8736228 mixed cells,  zone id: 7368
    31516610 faces,     8 face zones ...
         380908 polygonal wall faces,  zone id: 7376
          41176 polygonal pressure-outlet faces,  zone id: 7
            665 polygonal mass-flow-inlet faces,  zone id: 6
            670 polygonal mass-flow-inlet faces,  zone id: 5
            679 polygonal mass-flow-inlet faces,  zone id: 4
            674 polygonal mass-flow-inlet faces,  zone id: 3
            673 polygonal mass-flow-inlet faces,  zone id: 227
       31091165 mixed interior faces,  zone id: 7369
    15185679 nodes,     1 node zone  ...
  Done.


Building...
     mesh
	auto partitioning mesh by Metis (fast),
	distributing mesh
		parts...........,
		faces...........,
		nodes...........,
		cells...........,
        bandwidth reduction using Reverse Cuthill-McKee: 805737/9530 = 84.5474
     materials,
     interface,
     domains,
	mixture
     zones,
	zone48-0.25:48-0.25---1
	outlet
	interior-62
	inlet-middle
	inlet-1
	inlet-2
	inlet-3
	inlet-4
	zone48-0.25:48-0.25---1:60
     parallel,

Reading "F:\calculations\1-5nozzle-fullgridandcorexperiment\1nozzle\48\48-0.45\0.5.pdf"...

	Version of the file: "fluent18.0" 
  Read PDF case variables
	Type of the PDF Table: Nonadiabatic Table with FGM Model (Two Streams) 
  Read species data
  Read stream inlets
  Read PDF tables
    - mixture fraction table
    - temperature table
    - density table
    - specific heat table
      reading species            1 of  20  2 of  20  3 of  20  4 of  20  5 of  20  6 of  20  7 of  20  8 of  20  9 of  20 10 of  20 11 of  20 12 of  20 13 of  20 14 of  20 15 of  20 16 of  20 17 of  20 18 of  20 19 of  20 20 of  20
    - species mole fraction table

  Read intermediate data
Read 20 species (sectioned c, 3D prepdf)
PDF file successfully read.

Done.

Reading from WIN-I21RD2LCQ0C:"F:\calculations\1-5nozzle-fullgridandcorexperiment\1nozzle\48\48-0.45\48-0.45.dat.h5" in NODE0 mode ...


  Reading results.
Parallel variables...
Done.

Reading journal file F:\calculations\1-5nozzle-fullgridandcorexperiment\postprocessing\1nozzle\48\48-0.45\48-0.4545plane.txt...

> /file/set-tui-version "22.2"

> (cx-gui-do cx-activate-item "Ribbon*Frame1*Frame2(Domain)*Table1*Table3(Surface)*PushButton1(Create)")



> (cx-gui-do cx-activate-item "MenuBar*PopupMenuCreate*Plane...")



> (cx-gui-do cx-set-list-selections "Plane Surface*Table1*Table2(Method)*DropDownList1" '( 4))



> (cx-gui-do cx-activate-item "Plane Surface*Table1*Table2(Method)*DropDownList1")



> (cx-gui-do cx-set-text-entry "Plane Surface*Table1*Table1*TextEntry1(New Surface Name)" "far")



> (cx-gui-do cx-set-real-entry-list "Plane Surface*Table1*Frame4*Table1*Table1(Point 1)*RealEntry1(X)" '( 0.0864))



> (cx-gui-do cx-activate-item "Plane Surface*Table1*Frame4*Table1*Table1(Point 1)*RealEntry1(X)")



> (cx-gui-do cx-set-real-entry-list "Plane Surface*Table1*Frame4*Table1*Table1(Point 1)*RealEntry2(Y)" '( 0))



> (cx-gui-do cx-activate-item "Plane Surface*Table1*Frame4*Table1*Table1(Point 1)*RealEntry2(Y)")



> (cx-gui-do cx-set-real-entry-list "Plane Surface*Table1*Frame4*Table1*Table1(Point 1)*RealEntry3(Z)" '( -0.1728))



> (cx-gui-do cx-activate-item "Plane Surface*Table1*Frame4*Table1*Table1(Point 1)*RealEntry3(Z)")



> (cx-gui-do cx-set-real-entry-list "Plane Surface*Table1*Frame4*Table1*Table2(Point 2)*RealEntry1(X)" '( 0))



> (cx-gui-do cx-activate-item "Plane Surface*Table1*Frame4*Table1*Table2(Point 2)*RealEntry1(X)")



> (cx-gui-do cx-set-real-entry-list "Plane Surface*Table1*Frame4*Table1*Table2(Point 2)*RealEntry2(Y)" '( -0.0864))



> (cx-gui-do cx-activate-item "Plane Surface*Table1*Frame4*Table1*Table2(Point 2)*RealEntry2(Y)")



> (cx-gui-do cx-set-real-entry-list "Plane Surface*Table1*Frame4*Table1*Table2(Point 2)*RealEntry3(Z)" '( -0.1728))



> (cx-gui-do cx-activate-item "Plane Surface*Table1*Frame4*Table1*Table2(Point 2)*RealEntry3(Z)")



> (cx-gui-do cx-set-real-entry-list "Plane Surface*Table1*Frame4*Table1*Table3(Point 3)*RealEntry1(X)" '( 0.0864))



> (cx-gui-do cx-activate-item "Plane Surface*Table1*Frame4*Table1*Table3(Point 3)*RealEntry1(X)")



> (cx-gui-do cx-set-real-entry-list "Plane Surface*Table1*Frame4*Table1*Table3(Point 3)*RealEntry2(Y)" '( 0))



> (cx-gui-do cx-activate-item "Plane Surface*Table1*Frame4*Table1*Table3(Point 3)*RealEntry2(Y)")



> (cx-gui-do cx-set-real-entry-list "Plane Surface*Table1*Frame4*Table1*Table3(Point 3)*RealEntry3(Z)" '( -0.0036000000000000003))



> (cx-gui-do cx-activate-item "Plane Surface*Table1*Frame4*Table1*Table3(Point 3)*RealEntry3(Z)")



> (cx-gui-do cx-activate-item "Plane Surface*PanelButtons*PushButton1(OK)")
(cx-gui-do cx-activate-item "Plane Surface*PanelButtons*PushButton1(OK)")



> (cx-gui-do cx-activate-item "Plane Surface*PanelButtons*PushButton2(Cancel)")
(cx-gui-do cx-activate-item "Plane Surface*PanelButtons*PushButton2(Cancel)")



> (cx-gui-do cx-activate-item "MenuBar*WriteSubMenu*Stop Journal")



> 
Reading journal file F:\calculations\1-5nozzle-fullgridandcorexperiment\postprocessing\1nozzle\48\48-0.45\48-0.4545.txt...

> /file/set-tui-version "22.2"

> (cx-gui-do cx-activate-item "MenuBar*ExportSubMenu*Solution Data...")



> (cx-gui-do cx-set-list-selections "Export*Table1*Table1*DropDownList2(File Type)" '( 13))



> (cx-gui-do cx-activate-item "Export*Table1*Table1*DropDownList2(File Type)")



> (cx-gui-do cx-set-list-selections "Export*Table1*Table2*Table4*List1(Quantities)" '( 0))



> (cx-gui-do cx-activate-item "Export*Table1*Table2*Table4*List1(Quantities)")



> (cx-gui-do cx-set-list-selections "Export*Table1*Table2*Table4*List1(Quantities)" '( 0 8))



> (cx-gui-do cx-activate-item "Export*Table1*Table2*Table4*List1(Quantities)")



> (cx-gui-do cx-set-list-selections "Export*Table1*Table2*Table4*List1(Quantities)" '( 0 8 9))



> (cx-gui-do cx-activate-item "Export*Table1*Table2*Table4*List1(Quantities)")



[...]



> (cx-gui-do cx-activate-item "Export*Table1*Table2*Table4*List1(Quantities)")



> (cx-gui-do cx-set-list-selections "Export*Table1*Table2*Table4*List1(Quantities)" '( 0 8 9 10 11 25 26 27 28 29 31 32 34 50 51 52))



> (cx-gui-do cx-activate-item "Export*Table1*Table2*Table4*List1(Quantities)")



> (cx-gui-do cx-set-list-selections "Export*Table1*Table2*Table4*List1(Quantities)" '( 0 8 9 10 11 25 26 27 28 29 31 32 34 50 51 52 69))



> (cx-gui-do cx-activate-item "Export*Table1*Table2*Table4*List1(Quantities)")



> (cx-gui-do cx-set-list-selections "Export*Table1*Table2*Table4*List1(Quantities)" '( 0 8 9 10 11 25 26 27 28 29 31 32 34 50 51 52 69 76))



> (cx-gui-do cx-activate-item "Export*Table1*Table2*Table4*List1(Quantities)")



> (cx-gui-do cx-set-list-selections "Export*Table1*Table2*Table4*List1(Quantities)" '( 0 8 9 10 11 25 26 27 28 29 31 32 34 50 51 52 69 76 142))



> (cx-gui-do cx-activate-item "Export*Table1*Table2*Table4*List1(Quantities)")



> (cx-gui-do cx-set-list-selections "Export*Table1*Table2*Table4*List1(Quantities)" '( 0 8 9 10 11 25 26 27 28 29 31 32 34 50 51 52 69 76 142 146))



> (cx-gui-do cx-activate-item "Export*Table1*Table2*Table4*List1(Quantities)")



> (cx-gui-do cx-set-list-selections "Export*Table1*Table2*Table4*List1(Quantities)" '( 0 8 9 10 11 25 26 27 28 29 31 32 34 50 51 52 69 76 142 146 149))



> (cx-gui-do cx-activate-item "Export*Table1*Table2*Table4*List1(Quantities)")



> (cx-gui-do cx-set-list-selections "Export*Table1*Table2*Table4*List1(Quantities)" '( 0 8 9 10 11 25 26 27 28 29 31 32 34 50 51 52 69 76 142 146 149 151))



> (cx-gui-do cx-activate-item "Export*Table1*Table2*Table4*List1(Quantities)")



> (cx-gui-do cx-set-list-selections "Export*Table1*Table2*Table4*List1(Quantities)" '( 0 8 9 10 11 25 26 27 28 29 31 32 34 50 51 52 69 76 142 146 149 151 152))



> (cx-gui-do cx-activate-item "Export*Table1*Table2*Table4*List1(Quantities)")



> (cx-gui-do cx-set-list-selections "Export*Table1*Table2*Table4*List1(Quantities)" '( 0 8 9 10 11 25 26 27 28 29 31 32 34 50 51 52 69 76 142 146 149 151 152 153))



> (cx-gui-do cx-activate-item "Export*Table1*Table2*Table4*List1(Quantities)")



> (cx-gui-do cx-set-list-selections "Export*Table1*Table2*Table3*List1(Surfaces)" '( 6))



> (cx-gui-do cx-activate-item "Export*Table1*Table2*Table3*List1(Surfaces)")



> (cx-gui-do cx-activate-item "Export*PanelButtons*PushButton1(OK)")
(cx-gui-do cx-activate-item "Export*PanelButtons*PushButton1(OK)")



> (cx-gui-do cx-set-file-dialog-entries "Select File" '( "F:\calculations\1-5nozzle-fullgridandcorexperiment\postprocessing\5nozzle\48\48-0.3\45.plt") "Tecplot Files ()")

Opening library "C:\\PROGRA~1\\ANSYS Inc\\v222\\fluent\\fluent22.2.0\\vki\\win64\\devtools4.4.6.dll"... done.


Writing "F:\\calculations\\1-5nozzle-fullgridandcorexperiment\\postprocessing\\5nozzle\\48\\48-0.3\\45.plt"
   79084 nodes written.
   69182 elements written.
       1 node sets written.
         pressure is written as result for 79084 nodes
         velocity-magnitude is written as result for 79084 nodes
         x-velocity is written as result for 79084 nodes
         y-velocity is written as result for 79084 nodes
         z-velocity is written as result for 79084 nodes
         vorticity-mag is written as result for 79084 nodes
         helicity is written as result for 79084 nodes
         x-vorticity is written as result for 79084 nodes
         y-vorticity is written as result for 79084 nodes
         z-vorticity is written as result for 79084 nodes
         q-criterion is written as result for 79084 nodes
         raw-q-criterion is written as result for 79084 nodes
         temperature is written as result for 79084 nodes
         turb-kinetic-energy is written as result for 79084 nodes
         turb-intensity is written as result for 79084 nodes
         turb-diss-rate is written as result for 79084 nodes
         oh is written as result for 79084 nodes
         ch2o is written as result for 79084 nodes
         fmean is written as result for 79084 nodes
         heat-release-rate is written as result for 79084 nodes
         premixc is written as result for 79084 nodes
         damkohler-number is written as result for 79084 nodes
         stretch-fac is written as result for 79084 nodes
         turbulent-flame-speed is written as result for 79084 nodes
Done. 

Closing library "C:\\PROGRA~1\\ANSYS Inc\\v222\\fluent\\fluent22.2.0\\vki\\win64\\devtools4.4.6.dll"... done.


 Maximum PDF table enthalpy exceeded in 73 cells on zone 7368.



> (cx-gui-do cx-activate-item "Export*Table1*Table2*Table3*List1(Surfaces)")



> (cx-gui-do cx-set-list-selections "Export*Table1*Table2*Table3*List1(Surfaces)" '())



> (cx-gui-do cx-activate-item "Export*PanelButtons*PushButton2(Cancel)")
(cx-gui-do cx-activate-item "Export*PanelButtons*PushButton2(Cancel)")



> (cx-gui-do cx-activate-item "MenuBar*WriteSubMenu*Stop Journal")



> 
Writing to WIN-I21RD2LCQ0C:"F:\calculations\1-5nozzle-fullgridandcorexperiment\5nozzle\48\48-0.3\48-0.3.cas.h5" in NODE0 mode and compression level 1 ...
     8736228 cells,     1 zone  ...
    31516610 faces,     8 zones ...
    15185679 nodes,     1 zone  ...
  Done.
Done.

Writing to WIN-I21RD2LCQ0C:"F:\calculations\1-5nozzle-fullgridandcorexperiment\5nozzle\48\48-0.3\48-0.3.dat.h5" in NODE0 mode and compression level 1 ...
  Writing results.
Done.
Multicore SMT processors detected. Processor affinity set!

Error: list-remove: null list
Error Object: #f

       Clearing partially read grid.

Reading from WIN-I21RD2LCQ0C:"F:\calculations\1-5nozzle-fullgridandcorexperiment\5nozzle\48\48-0.25\48-0.25.cas.h5" in NODE0 mode ...
  Reading mesh ...
Warning: reading 47 partition grid onto 11 compute node machine.
         will auto partition.
     8736228 cells,     1 cell zone  ...
        8736228 mixed cells,  zone id: 7368
    31516610 faces,     8 face zones ...
         380908 polygonal wall faces,  zone id: 7376
          41176 polygonal pressure-outlet faces,  zone id: 7
            665 polygonal mass-flow-inlet faces,  zone id: 6
            670 polygonal mass-flow-inlet faces,  zone id: 5
            679 polygonal mass-flow-inlet faces,  zone id: 4
            674 polygonal mass-flow-inlet faces,  zone id: 3
            673 polygonal mass-flow-inlet faces,  zone id: 227
       31091165 mixed interior faces,  zone id: 7369
    15185679 nodes,     1 node zone  ...
  Done.


Building...
     mesh
	auto partitioning mesh by Metis (fast),
	distributing mesh
		parts...........,
		faces...........,
		nodes...........,
		cells...........,
        bandwidth reduction using Reverse Cuthill-McKee: 805737/9530 = 84.5474
     materials,
     interface,
     domains,
	mixture
     zones,
	zone48-0.25:48-0.25---1
	outlet
	interior-62
	inlet-middle
	inlet-1
	inlet-2
	inlet-3
	inlet-4
	zone48-0.25:48-0.25---1:60
     parallel,

Reading "F:\calculations\1-5nozzle-fullgridandcorexperiment\5nozzle\48\48-0.25\0.5.pdf"...

	Version of the file: "fluent18.0" 
  Read PDF case variables
	Type of the PDF Table: Nonadiabatic Table with FGM Model (Two Streams) 
  Read species data
  Read stream inlets
  Read PDF tables
    - mixture fraction table
    - temperature table
    - density table
    - specific heat table
      reading species            1 of  20  2 of  20  3 of  20  4 of  20  5 of  20  6 of  20  7 of  20  8 of  20  9 of  20 10 of  20 11 of  20 12 of  20 13 of  20 14 of  20 15 of  20 16 of  20 17 of  20 18 of  20 19 of  20 20 of  20
    - species mole fraction table

  Read intermediate data
Read 20 species (sectioned c, 3D prepdf)
PDF file successfully read.

Done.

Reading from WIN-I21RD2LCQ0C:"F:\calculations\1-5nozzle-fullgridandcorexperiment\5nozzle\48\48-0.25\48-0.25.dat.h5" in NODE0 mode ...


  Reading results.
Parallel variables...

 Maximum PDF table enthalpy exceeded in 141 cells on zone 7368.
Done.

Reading journal file F:\calculations\1-5nozzle-fullgridandcorexperiment\postprocessing\5nozzle\48\48-0.25\48-0.2545plane.txt...

> /file/set-tui-version "22.2"

> (cx-gui-do cx-activate-item "Ribbon*Frame1*Frame2(Domain)*Table1*Table3(Surface)*PushButton1(Create)")



> (cx-gui-do cx-activate-item "MenuBar*PopupMenuCreate*Plane...")



> (cx-gui-do cx-set-list-selections "Plane Surface*Table1*Table2(Method)*DropDownList1" '( 4))



> (cx-gui-do cx-activate-item "Plane Surface*Table1*Table2(Method)*DropDownList1")



> (cx-gui-do cx-set-text-entry "Plane Surface*Table1*Table1*TextEntry1(New Surface Name)" "far")



> (cx-gui-do cx-set-real-entry-list "Plane Surface*Table1*Frame4*Table1*Table1(Point 1)*RealEntry1(X)" '( 0.048))



> (cx-gui-do cx-activate-item "Plane Surface*Table1*Frame4*Table1*Table1(Point 1)*RealEntry1(X)")



> (cx-gui-do cx-set-real-entry-list "Plane Surface*Table1*Frame4*Table1*Table1(Point 1)*RealEntry2(Y)" '( 0))



> (cx-gui-do cx-activate-item "Plane Surface*Table1*Frame4*Table1*Table1(Point 1)*RealEntry2(Y)")



> (cx-gui-do cx-set-real-entry-list "Plane Surface*Table1*Frame4*Table1*Table1(Point 1)*RealEntry3(Z)" '( -0.096))



> (cx-gui-do cx-activate-item "Plane Surface*Table1*Frame4*Table1*Table1(Point 1)*RealEntry3(Z)")



> (cx-gui-do cx-set-real-entry-list "Plane Surface*Table1*Frame4*Table1*Table2(Point 2)*RealEntry1(X)" '( 0))



> (cx-gui-do cx-activate-item "Plane Surface*Table1*Frame4*Table1*Table2(Point 2)*RealEntry1(X)")



> (cx-gui-do cx-set-real-entry-list "Plane Surface*Table1*Frame4*Table1*Table2(Point 2)*RealEntry2(Y)" '( -0.048))



> (cx-gui-do cx-activate-item "Plane Surface*Table1*Frame4*Table1*Table2(Point 2)*RealEntry2(Y)")



> (cx-gui-do cx-set-real-entry-list "Plane Surface*Table1*Frame4*Table1*Table2(Point 2)*RealEntry3(Z)" '( -0.096))



> (cx-gui-do cx-activate-item "Plane Surface*Table1*Frame4*Table1*Table2(Point 2)*RealEntry3(Z)")



> (cx-gui-do cx-set-real-entry-list "Plane Surface*Table1*Frame4*Table1*Table3(Point 3)*RealEntry1(X)" '( 0.048))



> (cx-gui-do cx-activate-item "Plane Surface*Table1*Frame4*Table1*Table3(Point 3)*RealEntry1(X)")



> (cx-gui-do cx-set-real-entry-list "Plane Surface*Table1*Frame4*Table1*Table3(Point 3)*RealEntry2(Y)" '( 0))



> (cx-gui-do cx-activate-item "Plane Surface*Table1*Frame4*Table1*Table3(Point 3)*RealEntry2(Y)")



> (cx-gui-do cx-set-real-entry-list "Plane Surface*Table1*Frame4*Table1*Table3(Point 3)*RealEntry3(Z)" '( -0.002))



> (cx-gui-do cx-activate-item "Plane Surface*Table1*Frame4*Table1*Table3(Point 3)*RealEntry3(Z)")



> (cx-gui-do cx-activate-item "Plane Surface*PanelButtons*PushButton1(OK)")
(cx-gui-do cx-activate-item "Plane Surface*PanelButtons*PushButton1(OK)")



> (cx-gui-do cx-activate-item "Plane Surface*PanelButtons*PushButton2(Cancel)")
(cx-gui-do cx-activate-item "Plane Surface*PanelButtons*PushButton2(Cancel)")



> (cx-gui-do cx-activate-item "MenuBar*WriteSubMenu*Stop Journal")



> 
Reading journal file F:\calculations\1-5nozzle-fullgridandcorexperiment\postprocessing\5nozzle\48\48-0.25\48-0.2545.txt...

> /file/set-tui-version "22.2"

> (cx-gui-do cx-activate-item "MenuBar*ExportSubMenu*Solution Data...")



> (cx-gui-do cx-set-list-selections "Export*Table1*Table1*DropDownList2(File Type)" '( 13))



> (cx-gui-do cx-activate-item "Export*Table1*Table1*DropDownList2(File Type)")



> (cx-gui-do cx-set-list-selections "Export*Table1*Table2*Table4*List1(Quantities)" '( 0))



> (cx-gui-do cx-activate-item "Export*Table1*Table2*Table4*List1(Quantities)")



> (cx-gui-do cx-set-list-selections "Export*Table1*Table2*Table4*List1(Quantities)" '( 0 8))



> (cx-gui-do cx-activate-item "Export*Table1*Table2*Table4*List1(Quantities)")



> (cx-gui-do cx-set-list-selections "Export*Table1*Table2*Table4*List1(Quantities)" '( 0 8 9))



> (cx-gui-do cx-activate-item "Export*Table1*Table2*Table4*List1(Quantities)")



> (cx-gui-do cx-set-list-selections "Export*Table1*Table2*Table4*List1(Quantities)" '( 0 8 9 10))



> (cx-gui-do cx-activate-item "Export*Table1*Table2*Table4*List1(Quantities)")



> (cx-gui-do cx-set-list-selections "Export*Table1*Table2*Table4*List1(Quantities)" '( 0 8 9 10 11))



> (cx-gui-do cx-activate-item "Export*Table1*Table2*Table4*List1(Quantities)")



> (cx-gui-do cx-set-list-selections "Export*Table1*Table2*Table4*List1(Quantities)" '( 0 8 9 10 11 25))



> (cx-gui-do cx-activate-item "Export*Table1*Table2*Table4*List1(Quantities)")



> (cx-gui-do cx-set-list-selections "Export*Table1*Table2*Table4*List1(Quantities)" '( 0 8 9 10 11 25 26))



> (cx-gui-do cx-activate-item "Export*Table1*Table2*Table4*List1(Quantities)")



> (cx-gui-do cx-set-list-selections "Export*Table1*Table2*Table4*List1(Quantities)" '( 0 8 9 10 11 25 26 27))



> (cx-gui-do cx-activate-item "Export*Table1*Table2*Table4*List1(Quantities)")



> (cx-gui-do cx-set-list-selections "Export*Table1*Table2*Table4*List1(Quantities)" '( 0 8 9 10 11 25 26 27 28))



> (cx-gui-do cx-activate-item "Export*Table1*Table2*Table4*List1(Quantities)")



> (cx-gui-do cx-set-list-selections "Export*Table1*Table2*Table4*List1(Quantities)" '( 0 8 9 10 11 25 26 27 28 29))



> (cx-gui-do cx-activate-item "Export*Table1*Table2*Table4*List1(Quantities)")



> (cx-gui-do cx-set-list-selections "Export*Table1*Table2*Table4*List1(Quantities)" '( 0 8 9 10 11 25 26 27 28 29 31))



> (cx-gui-do cx-activate-item "Export*Table1*Table2*Table4*List1(Quantities)")



> (cx-gui-do cx-set-list-selections "Export*Table1*Table2*Table4*List1(Quantities)" '( 0 8 9 10 11 25 26 27 28 29 31 32))



> (cx-gui-do cx-activate-item "Export*Table1*Table2*Table4*List1(Quantities)")



> (cx-gui-do cx-set-list-selections "Export*Table1*Table2*Table4*List1(Quantities)" '( 0 8 9 10 11 25 26 27 28 29 31 32 34))



> (cx-gui-do cx-activate-item "Export*Table1*Table2*Table4*List1(Quantities)")



> (cx-gui-do cx-set-list-selections "Export*Table1*Table2*Table4*List1(Quantities)" '( 0 8 9 10 11 25 26 27 28 29 31 32 34 50))



> (cx-gui-do cx-activate-item "Export*Table1*Table2*Table4*List1(Quantities)")



> (cx-gui-do cx-set-list-selections "Export*Table1*Table2*Table4*List1(Quantities)" '( 0 8 9 10 11 25 26 27 28 29 31 32 34 50 51))



> (cx-gui-do cx-activate-item "Export*Table1*Table2*Table4*List1(Quantities)")



> (cx-gui-do cx-set-list-selections "Export*Table1*Table2*Table4*List1(Quantities)" '( 0 8 9 10 11 25 26 27 28 29 31 32 34 50 51 52))



> (cx-gui-do cx-activate-item "Export*Table1*Table2*Table4*List1(Quantities)")



> (cx-gui-do cx-set-list-selections "Export*Table1*Table2*Table4*List1(Quantities)" '( 0 8 9 10 11 25 26 27 28 29 31 32 34 50 51 52 69))



> (cx-gui-do cx-activate-item "Export*Table1*Table2*Table4*List1(Quantities)")



> (cx-gui-do cx-set-list-selections "Export*Table1*Table2*Table4*List1(Quantities)" '( 0 8 9 10 11 25 26 27 28 29 31 32 34 50 51 52 69 76))



> (cx-gui-do cx-activate-item "Export*Table1*Table2*Table4*List1(Quantities)")



> (cx-gui-do cx-set-list-selections "Export*Table1*Table2*Table4*List1(Quantities)" '( 0 8 9 10 11 25 26 27 28 29 31 32 34 50 51 52 69 76 142))



> (cx-gui-do cx-activate-item "Export*Table1*Table2*Table4*List1(Quantities)")



> (cx-gui-do cx-set-list-selections "Export*Table1*Table2*Table4*List1(Quantities)" '( 0 8 9 10 11 25 26 27 28 29 31 32 34 50 51 52 69 76 142 146))



> (cx-gui-do cx-activate-item "Export*Table1*Table2*Table4*List1(Quantities)")



> (cx-gui-do cx-set-list-selections "Export*Table1*Table2*Table4*List1(Quantities)" '( 0 8 9 10 11 25 26 27 28 29 31 32 34 50 51 52 69 76 142 146 149))



> (cx-gui-do cx-activate-item "Export*Table1*Table2*Table4*List1(Quantities)")



> (cx-gui-do cx-set-list-selections "Export*Table1*Table2*Table4*List1(Quantities)" '( 0 8 9 10 11 25 26 27 28 29 31 32 34 50 51 52 69 76 142 146 149 151))



> (cx-gui-do cx-activate-item "Export*Table1*Table2*Table4*List1(Quantities)")



> (cx-gui-do cx-set-list-selections "Export*Table1*Table2*Table4*List1(Quantities)" '( 0 8 9 10 11 25 26 27 28 29 31 32 34 50 51 52 69 76 142 146 149 151 152))



> (cx-gui-do cx-activate-item "Export*Table1*Table2*Table4*List1(Quantities)")



> (cx-gui-do cx-set-list-selections "Export*Table1*Table2*Table4*List1(Quantities)" '( 0 8 9 10 11 25 26 27 28 29 31 32 34 50 51 52 69 76 142 146 149 151 152 153))



> (cx-gui-do cx-activate-item "Export*Table1*Table2*Table4*List1(Quantities)")



> (cx-gui-do cx-set-list-selections "Export*Table1*Table2*Table3*List1(Surfaces)" '( 6))



> (cx-gui-do cx-activate-item "Export*Table1*Table2*Table3*List1(Surfaces)")



> (cx-gui-do cx-activate-item "Export*PanelButtons*PushButton1(OK)")
(cx-gui-do cx-activate-item "Export*PanelButtons*PushButton1(OK)")



> (cx-gui-do cx-set-file-dialog-entries "Select File" '( "F:\calculations\1-5nozzle-fullgridandcorexperiment\postprocessing\5nozzle\48\48-0.25\45.plt") "Tecplot Files ()")

Opening library "C:\\PROGRA~1\\ANSYS Inc\\v222\\fluent\\fluent22.2.0\\vki\\win64\\devtools4.4.6.dll"... done.


Writing "F:\\calculations\\1-5nozzle-fullgridandcorexperiment\\postprocessing\\5nozzle\\48\\48-0.25\\45.plt"
   79095 nodes written.
   69179 elements written.
       1 node sets written.
         pressure is written as result for 79095 nodes
         velocity-magnitude is written as result for 79095 nodes
         x-velocity is written as result for 79095 nodes
         y-velocity is written as result for 79095 nodes
         z-velocity is written as result for 79095 nodes
         vorticity-mag is written as result for 79095 nodes
         helicity is written as result for 79095 nodes
         x-vorticity is written as result for 79095 nodes
         y-vorticity is written as result for 79095 nodes
         z-vorticity is written as result for 79095 nodes
         q-criterion is written as result for 79095 nodes
         raw-q-criterion is written as result for 79095 nodes
         temperature is written as result for 79095 nodes
         turb-kinetic-energy is written as result for 79095 nodes
         turb-intensity is written as result for 79095 nodes
         turb-diss-rate is written as result for 79095 nodes
         oh is written as result for 79095 nodes
         ch2o is written as result for 79095 nodes
         fmean is written as result for 79095 nodes
         heat-release-rate is written as result for 79095 nodes
         premixc is written as result for 79095 nodes
         damkohler-number is written as result for 79095 nodes
         stretch-fac is written as result for 79095 nodes
         turbulent-flame-speed is written as result for 79095 nodes
Done. 

Closing library "C:\\PROGRA~1\\ANSYS Inc\\v222\\fluent\\fluent22.2.0\\vki\\win64\\devtools4.4.6.dll"... done.


 Maximum PDF table enthalpy exceeded in 141 cells on zone 7368.



> (cx-gui-do cx-activate-item "Export*Table1*Table2*Table3*List1(Surfaces)")



> (cx-gui-do cx-set-list-selections "Export*Table1*Table2*Table3*List1(Surfaces)" '())



> (cx-gui-do cx-activate-item "Export*PanelButtons*PushButton2(Cancel)")
(cx-gui-do cx-activate-item "Export*PanelButtons*PushButton2(Cancel)")



> (cx-gui-do cx-activate-item "MenuBar*WriteSubMenu*Stop Journal")



> 
Writing to WIN-I21RD2LCQ0C:"F:\calculations\1-5nozzle-fullgridandcorexperiment\5nozzle\48\48-0.25\48-0.25.cas.h5" in NODE0 mode and compression level 1 ...
     8736228 cells,     1 zone  ...
    31516610 faces,     8 zones ...
    15185679 nodes,     1 zone  ...
  Done.
Done.

Writing to WIN-I21RD2LCQ0C:"F:\calculations\1-5nozzle-fullgridandcorexperiment\5nozzle\48\48-0.25\48-0.25.dat.h5" in NODE0 mode and compression level 1 ...
  Writing results.
Done.
Shutting down Server...
Services Shutdown...Done.
Server Shutdown...Done.
Queue Cleared...Done.
Shutdown Complete.
Auto-Transcript Stop Time:  16:29:49, 13 Sep 2023 中国标准时间 
Total Transcript Time: 2 Hour 53 Minute 8 Second.
